/*---------------------------------------------------------------------------*\
| =========                 |                                                 |
| \\      /  F ield         | OpenFOAM: The Open Source CFD Toolbox           |
|  \\    /   O peration     | Version:  2.4.x                                 |
|   \\  /    A nd           | Web:      www.OpenFOAM.org                      |
|    \\/     M anipulation  |                                                 |
\*---------------------------------------------------------------------------*/
Build  : 2.4.x-2b147f41daf9
Exec   : /home/kjmaki/OpenFOAM/OpenFOAM-2.4.x/platforms/linux64GccDPOpt/bin/simpleFoam
Date   : Jan 25 2017
Time   : 15:11:30
Host   : "kjmaki-Parallels-Virtual-Platform"
PID    : 16492
Case   : /home/kjmaki/OpenFOAM/kjmaki-2.4.x/run/na423/flatPlate-test-koSST
nProcs : 1
sigFpe : Enabling floating point exception trapping (FOAM_SIGFPE).
fileModificationChecking : Monitoring run-time modified files using timeStampMaster
allowSystemOperations : Allowing user-supplied system call operations

// * * * * * * * * * * * * * * * * * * * * * * * * * * * * * * * * * * * * * //
Create time

Create mesh for time = 0

Reading field p

Reading field U

Reading/calculating face flux field phi

Selecting incompressible transport model Newtonian
Selecting RAS turbulence model kOmegaSST
--> FOAM Warning : 
    From function Field<Type>::Field(const word& keyword, const dictionary&, const label)
    in file /home/kjmaki/OpenFOAM/OpenFOAM-2.4.x/src/OpenFOAM/lnInclude/Field.C at line 318
    Reading "/home/kjmaki/OpenFOAM/kjmaki-2.4.x/run/na423/flatPlate-test-koSST/0/omega" from line 18 to line 45
    expected keyword 'uniform' or 'nonuniform', assuming deprecated Field format from Foam version 2.0.
--> FOAM Warning : 
    From function Field<Type>::Field(const word& keyword, const dictionary&, const label)
    in file /home/kjmaki/OpenFOAM/OpenFOAM-2.4.x/src/OpenFOAM/lnInclude/Field.C at line 318
    Reading "/home/kjmaki/OpenFOAM/kjmaki-2.4.x/run/na423/flatPlate-test-koSST/0/omega.boundaryField.inlet" from line 26 to line 20
    expected keyword 'uniform' or 'nonuniform', assuming deprecated Field format from Foam version 2.0.
--> FOAM Warning : 
    From function Field<Type>::Field(const word& keyword, const dictionary&, const label)
    in file /home/kjmaki/OpenFOAM/OpenFOAM-2.4.x/src/OpenFOAM/lnInclude/Field.C at line 318
    Reading "/home/kjmaki/OpenFOAM/kjmaki-2.4.x/run/na423/flatPlate-test-koSST/0/omega.boundaryField.outlet" from line 31 to line 20
    expected keyword 'uniform' or 'nonuniform', assuming deprecated Field format from Foam version 2.0.
--> FOAM Warning : 
    From function Field<Type>::Field(const word& keyword, const dictionary&, const label)
    in file /home/kjmaki/OpenFOAM/OpenFOAM-2.4.x/src/OpenFOAM/lnInclude/Field.C at line 318
    Reading "/home/kjmaki/OpenFOAM/kjmaki-2.4.x/run/na423/flatPlate-test-koSST/0/omega.boundaryField.outlet" from line 31 to line 20
    expected keyword 'uniform' or 'nonuniform', assuming deprecated Field format from Foam version 2.0.
bounding k, min: 0 max: 0.047 average: 0.047
kOmegaSSTCoeffs
{
    alphaK1         0.85;
    alphaK2         1;
    alphaOmega1     0.5;
    alphaOmega2     0.856;
    gamma1          0.555556;
    gamma2          0.44;
    beta1           0.075;
    beta2           0.0828;
    betaStar        0.09;
    a1              0.31;
    b1              1;
    c1              10;
    F3              false;
}

No finite volume options present


SIMPLE: convergence criteria
    field p	 tolerance 1e-09
    field U	 tolerance 1e-09
    field nuTilda	 tolerance 1e-09


Starting time loop

Time = 1

smoothSolver:  Solving for Ux, Initial residual = 1, Final residual = 0.0230067, No Iterations 4
smoothSolver:  Solving for Uy, Initial residual = 1, Final residual = 0.0229139, No Iterations 4
GAMG:  Solving for p, Initial residual = 1, Final residual = 0.0959612, No Iterations 13
time step continuity errors : sum local = 7.90349e-06, global = -6.04737e-07, cumulative = -6.04737e-07
smoothSolver:  Solving for omega, Initial residual = 1, Final residual = 3.6635e-05, No Iterations 2
smoothSolver:  Solving for k, Initial residual = 1, Final residual = 9.71214e-05, No Iterations 2
bounding k, min: 0 max: 0.047014 average: 0.0469817
ExecutionTime = 0.34 s  ClockTime = 0 s

Time = 2

smoothSolver:  Solving for Ux, Initial residual = 0.174618, Final residual = 0.00932777, No Iterations 2
smoothSolver:  Solving for Uy, Initial residual = 0.60265, Final residual = 0.0546002, No Iterations 2
GAMG:  Solving for p, Initial residual = 0.0873915, Final residual = 0.0075003, No Iterations 16
time step continuity errors : sum local = 2.23639e-05, global = -1.74638e-06, cumulative = -2.35111e-06
smoothSolver:  Solving for omega, Initial residual = 0.160051, Final residual = 3.31977e-06, No Iterations 2
smoothSolver:  Solving for k, Initial residual = 0.591023, Final residual = 5.56629e-05, No Iterations 2
bounding k, min: 0 max: 0.0474867 average: 0.046967
ExecutionTime = 0.46 s  ClockTime = 0 s

Time = 3

smoothSolver:  Solving for Ux, Initial residual = 0.0540986, Final residual = 0.00213316, No Iterations 2
smoothSolver:  Solving for Uy, Initial residual = 0.457546, Final residual = 0.0409585, No Iterations 2
GAMG:  Solving for p, Initial residual = 0.0315185, Final residual = 0.00309695, No Iterations 15
time step continuity errors : sum local = 3.93208e-05, global = -1.99889e-06, cumulative = -4.35e-06
smoothSolver:  Solving for omega, Initial residual = 0.0719255, Final residual = 5.1482e-07, No Iterations 2
smoothSolver:  Solving for k, Initial residual = 0.390178, Final residual = 3.43309e-05, No Iterations 2
bounding k, min: 0 max: 0.0534528 average: 0.0469807
ExecutionTime = 0.57 s  ClockTime = 0 s

Time = 4

smoothSolver:  Solving for Ux, Initial residual = 0.0308801, Final residual = 0.00141171, No Iterations 2
smoothSolver:  Solving for Uy, Initial residual = 0.298094, Final residual = 0.0270532, No Iterations 2
GAMG:  Solving for p, Initial residual = 0.0188394, Final residual = 0.00161531, No Iterations 4
time step continuity errors : sum local = 3.56818e-05, global = 1.54258e-06, cumulative = -2.80742e-06
smoothSolver:  Solving for omega, Initial residual = 0.0540602, Final residual = 1.10216e-07, No Iterations 2
smoothSolver:  Solving for k, Initial residual = 0.201599, Final residual = 1.59686e-05, No Iterations 2
bounding k, min: 0 max: 0.066566 average: 0.0470272
ExecutionTime = 0.64 s  ClockTime = 0 s

Time = 5

smoothSolver:  Solving for Ux, Initial residual = 0.0192946, Final residual = 0.000980653, No Iterations 2
smoothSolver:  Solving for Uy, Initial residual = 0.170974, Final residual = 0.0159065, No Iterations 2
GAMG:  Solving for p, Initial residual = 0.0171713, Final residual = 0.00159403, No Iterations 14
time step continuity errors : sum local = 3.51063e-05, global = 2.25795e-06, cumulative = -5.49476e-07
smoothSolver:  Solving for omega, Initial residual = 0.0279678, Final residual = 3.29376e-08, No Iterations 2
smoothSolver:  Solving for k, Initial residual = 0.095038, Final residual = 7.57532e-06, No Iterations 2
bounding k, min: 0 max: 0.0747669 average: 0.0470585
ExecutionTime = 0.76 s  ClockTime = 0 s

Time = 6

smoothSolver:  Solving for Ux, Initial residual = 0.0105914, Final residual = 0.000615939, No Iterations 2
smoothSolver:  Solving for Uy, Initial residual = 0.0838809, Final residual = 0.00814326, No Iterations 2
GAMG:  Solving for p, Initial residual = 0.02052, Final residual = 0.00172197, No Iterations 18
time step continuity errors : sum local = 2.32023e-05, global = 1.76773e-06, cumulative = 1.21825e-06
smoothSolver:  Solving for omega, Initial residual = 0.00946164, Final residual = 1.84461e-08, No Iterations 2
smoothSolver:  Solving for k, Initial residual = 0.0677841, Final residual = 5.33337e-06, No Iterations 2
bounding k, min: 0 max: 0.0811145 average: 0.0471006
ExecutionTime = 0.87 s  ClockTime = 0 s

Time = 7

smoothSolver:  Solving for Ux, Initial residual = 0.00561378, Final residual = 0.000387228, No Iterations 2
smoothSolver:  Solving for Uy, Initial residual = 0.040027, Final residual = 0.000875946, No Iterations 4
GAMG:  Solving for p, Initial residual = 0.0459638, Final residual = 0.00379478, No Iterations 14
time step continuity errors : sum local = 2.02939e-05, global = 2.03906e-06, cumulative = 3.25731e-06
smoothSolver:  Solving for omega, Initial residual = 0.00605854, Final residual = 3.17994e-08, No Iterations 2
smoothSolver:  Solving for k, Initial residual = 0.0498897, Final residual = 3.97752e-06, No Iterations 2
bounding k, min: 0 max: 0.0864058 average: 0.0471399
ExecutionTime = 0.98 s  ClockTime = 0 s

Time = 8

smoothSolver:  Solving for Ux, Initial residual = 0.00431944, Final residual = 0.000313767, No Iterations 2
smoothSolver:  Solving for Uy, Initial residual = 0.029962, Final residual = 0.00281859, No Iterations 2
GAMG:  Solving for p, Initial residual = 0.049334, Final residual = 0.00369013, No Iterations 11
time step continuity errors : sum local = 1.56598e-05, global = -1.34852e-06, cumulative = 1.90878e-06
smoothSolver:  Solving for omega, Initial residual = 0.00408056, Final residual = 3.3582e-08, No Iterations 2
smoothSolver:  Solving for k, Initial residual = 0.0396942, Final residual = 3.21468e-06, No Iterations 2
bounding k, min: 0 max: 0.0910202 average: 0.0471764
ExecutionTime = 1.06 s  ClockTime = 1 s

Time = 9

smoothSolver:  Solving for Ux, Initial residual = 0.00463045, Final residual = 0.000322698, No Iterations 2
smoothSolver:  Solving for Uy, Initial residual = 0.0354971, Final residual = 0.00293791, No Iterations 2
GAMG:  Solving for p, Initial residual = 0.0236601, Final residual = 0.00232244, No Iterations 15
time step continuity errors : sum local = 1.83378e-05, global = -1.09921e-06, cumulative = 8.09573e-07
smoothSolver:  Solving for omega, Initial residual = 0.0028195, Final residual = 3.6692e-08, No Iterations 2
smoothSolver:  Solving for k, Initial residual = 0.0333141, Final residual = 2.74212e-06, No Iterations 2
bounding k, min: 0 max: 0.0951669 average: 0.0472133
ExecutionTime = 1.17 s  ClockTime = 1 s

Time = 10

smoothSolver:  Solving for Ux, Initial residual = 0.00483569, Final residual = 0.000339314, No Iterations 2
smoothSolver:  Solving for Uy, Initial residual = 0.042081, Final residual = 0.00342007, No Iterations 2
GAMG:  Solving for p, Initial residual = 0.0154001, Final residual = 0.00150548, No Iterations 11
time step continuity errors : sum local = 1.65959e-05, global = 1.77631e-06, cumulative = 2.58588e-06
smoothSolver:  Solving for omega, Initial residual = 0.00206556, Final residual = 4.43256e-08, No Iterations 2
smoothSolver:  Solving for k, Initial residual = 0.0286694, Final residual = 2.39451e-06, No Iterations 2
bounding k, min: 0 max: 0.0989611 average: 0.0472504
ExecutionTime = 1.27 s  ClockTime = 1 s

Time = 11

smoothSolver:  Solving for Ux, Initial residual = 0.0042487, Final residual = 0.000324424, No Iterations 2
smoothSolver:  Solving for Uy, Initial residual = 0.0397822, Final residual = 0.00357763, No Iterations 2
GAMG:  Solving for p, Initial residual = 0.0139553, Final residual = 0.00133838, No Iterations 12
time step continuity errors : sum local = 1.41102e-05, global = 1.79097e-06, cumulative = 4.37685e-06
smoothSolver:  Solving for omega, Initial residual = 0.00154858, Final residual = 4.93923e-08, No Iterations 2
smoothSolver:  Solving for k, Initial residual = 0.025026, Final residual = 2.11737e-06, No Iterations 2
bounding k, min: 0 max: 0.102477 average: 0.0472852
ExecutionTime = 1.36 s  ClockTime = 1 s

Time = 12

smoothSolver:  Solving for Ux, Initial residual = 0.00327248, Final residual = 0.000286829, No Iterations 2
smoothSolver:  Solving for Uy, Initial residual = 0.0299541, Final residual = 0.0028999, No Iterations 2
GAMG:  Solving for p, Initial residual = 0.0177894, Final residual = 0.00148385, No Iterations 18
time step continuity errors : sum local = 1.1038e-05, global = 1.60221e-06, cumulative = 5.97906e-06
smoothSolver:  Solving for omega, Initial residual = 0.00143707, Final residual = 5.01504e-08, No Iterations 2
smoothSolver:  Solving for k, Initial residual = 0.0223072, Final residual = 1.91118e-06, No Iterations 2
bounding k, min: 0 max: 0.10577 average: 0.0473186
ExecutionTime = 1.47 s  ClockTime = 1 s

Time = 13

smoothSolver:  Solving for Ux, Initial residual = 0.00266658, Final residual = 0.000253345, No Iterations 2
smoothSolver:  Solving for Uy, Initial residual = 0.0235408, Final residual = 0.00229956, No Iterations 2
GAMG:  Solving for p, Initial residual = 0.0218262, Final residual = 0.00204882, No Iterations 15
time step continuity errors : sum local = 1.06209e-05, global = -1.50434e-06, cumulative = 4.47472e-06
smoothSolver:  Solving for omega, Initial residual = 0.00140466, Final residual = 5.09828e-08, No Iterations 2
smoothSolver:  Solving for k, Initial residual = 0.0201963, Final residual = 1.75227e-06, No Iterations 2
bounding k, min: 0 max: 0.108893 average: 0.0473516
ExecutionTime = 1.58 s  ClockTime = 1 s

Time = 14

smoothSolver:  Solving for Ux, Initial residual = 0.0025549, Final residual = 0.00023996, No Iterations 2
smoothSolver:  Solving for Uy, Initial residual = 0.0218988, Final residual = 0.00209866, No Iterations 2
GAMG:  Solving for p, Initial residual = 0.0193378, Final residual = 0.00183483, No Iterations 12
time step continuity errors : sum local = 9.7648e-06, global = 4.1502e-08, cumulative = 4.51622e-06
smoothSolver:  Solving for omega, Initial residual = 0.00135101, Final residual = 5.24196e-08, No Iterations 2
smoothSolver:  Solving for k, Initial residual = 0.0185028, Final residual = 1.62895e-06, No Iterations 2
bounding k, min: 0 max: 0.111885 average: 0.0473852
ExecutionTime = 1.67 s  ClockTime = 1 s

Time = 15

smoothSolver:  Solving for Ux, Initial residual = 0.00267034, Final residual = 0.000240021, No Iterations 2
smoothSolver:  Solving for Uy, Initial residual = 0.0225721, Final residual = 0.00210427, No Iterations 2
GAMG:  Solving for p, Initial residual = 0.0146661, Final residual = 0.00144636, No Iterations 13
time step continuity errors : sum local = 1.00056e-05, global = -9.65807e-07, cumulative = 3.55041e-06
smoothSolver:  Solving for omega, Initial residual = 0.00129689, Final residual = 5.57524e-08, No Iterations 2
smoothSolver:  Solving for k, Initial residual = 0.0170276, Final residual = 1.51641e-06, No Iterations 2
bounding k, min: 0 max: 0.114775 average: 0.0474183
ExecutionTime = 1.78 s  ClockTime = 1 s

Time = 16

smoothSolver:  Solving for Ux, Initial residual = 0.00265544, Final residual = 0.00023988, No Iterations 2
smoothSolver:  Solving for Uy, Initial residual = 0.0229444, Final residual = 0.002084, No Iterations 2
GAMG:  Solving for p, Initial residual = 0.0114774, Final residual = 0.00113614, No Iterations 12
time step continuity errors : sum local = 8.90554e-06, global = -3.30377e-07, cumulative = 3.22004e-06
smoothSolver:  Solving for omega, Initial residual = 0.00122631, Final residual = 5.66735e-08, No Iterations 2
smoothSolver:  Solving for k, Initial residual = 0.0157595, Final residual = 1.41506e-06, No Iterations 2
bounding k, min: 0 max: 0.117589 average: 0.0474506
ExecutionTime = 1.87 s  ClockTime = 1 s

Time = 17

smoothSolver:  Solving for Ux, Initial residual = 0.00243791, Final residual = 0.00023299, No Iterations 2
smoothSolver:  Solving for Uy, Initial residual = 0.0217831, Final residual = 0.00200764, No Iterations 2
GAMG:  Solving for p, Initial residual = 0.0104774, Final residual = 0.00100483, No Iterations 12
time step continuity errors : sum local = 7.44992e-06, global = -4.23519e-07, cumulative = 2.79652e-06
smoothSolver:  Solving for omega, Initial residual = 0.00115294, Final residual = 5.65088e-08, No Iterations 2
smoothSolver:  Solving for k, Initial residual = 0.0146842, Final residual = 1.3282e-06, No Iterations 2
bounding k, min: 0 max: 0.120343 average: 0.0474823
ExecutionTime = 1.96 s  ClockTime = 1 s

Time = 18

smoothSolver:  Solving for Ux, Initial residual = 0.00215674, Final residual = 3.78634e-05, No Iterations 4
smoothSolver:  Solving for Uy, Initial residual = 0.0192224, Final residual = 0.00184456, No Iterations 2
GAMG:  Solving for p, Initial residual = 0.01152, Final residual = 0.00114904, No Iterations 13
time step continuity errors : sum local = 7.12085e-06, global = 7.83338e-07, cumulative = 3.57985e-06
smoothSolver:  Solving for omega, Initial residual = 0.00108347, Final residual = 5.64523e-08, No Iterations 2
smoothSolver:  Solving for k, Initial residual = 0.0137595, Final residual = 1.25518e-06, No Iterations 2
bounding k, min: 0 max: 0.123054 average: 0.0475136
ExecutionTime = 2.06 s  ClockTime = 2 s

Time = 19

smoothSolver:  Solving for Ux, Initial residual = 0.00200926, Final residual = 3.58114e-05, No Iterations 4
smoothSolver:  Solving for Uy, Initial residual = 0.0182085, Final residual = 0.00177411, No Iterations 2
GAMG:  Solving for p, Initial residual = 0.0108722, Final residual = 0.00106154, No Iterations 15
time step continuity errors : sum local = 6.07524e-06, global = 2.14916e-07, cumulative = 3.79477e-06
smoothSolver:  Solving for omega, Initial residual = 0.00100511, Final residual = 5.66286e-08, No Iterations 2
smoothSolver:  Solving for k, Initial residual = 0.0129598, Final residual = 1.19416e-06, No Iterations 2
bounding k, min: 0 max: 0.125734 average: 0.0475448
ExecutionTime = 2.16 s  ClockTime = 2 s

Time = 20

smoothSolver:  Solving for Ux, Initial residual = 0.0019732, Final residual = 3.4499e-05, No Iterations 4
smoothSolver:  Solving for Uy, Initial residual = 0.017872, Final residual = 0.00176561, No Iterations 2
GAMG:  Solving for p, Initial residual = 0.0107098, Final residual = 0.000958268, No Iterations 13
time step continuity errors : sum local = 5.75266e-06, global = -6.17734e-07, cumulative = 3.17704e-06
smoothSolver:  Solving for omega, Initial residual = 0.000929242, Final residual = 5.7316e-08, No Iterations 2
smoothSolver:  Solving for k, Initial residual = 0.0122597, Final residual = 1.14345e-06, No Iterations 2
bounding k, min: 0 max: 0.128398 average: 0.0475761
ExecutionTime = 2.25 s  ClockTime = 2 s

Time = 21

smoothSolver:  Solving for Ux, Initial residual = 0.00196067, Final residual = 3.39862e-05, No Iterations 4
smoothSolver:  Solving for Uy, Initial residual = 0.0174929, Final residual = 0.0017322, No Iterations 2
GAMG:  Solving for p, Initial residual = 0.010687, Final residual = 0.00100536, No Iterations 9
time step continuity errors : sum local = 6.58369e-06, global = -5.01258e-07, cumulative = 2.67578e-06
smoothSolver:  Solving for omega, Initial residual = 0.000884665, Final residual = 5.88482e-08, No Iterations 2
smoothSolver:  Solving for k, Initial residual = 0.0116143, Final residual = 1.09433e-06, No Iterations 2
bounding k, min: 0 max: 0.131054 average: 0.0476071
ExecutionTime = 2.34 s  ClockTime = 2 s

Time = 22

smoothSolver:  Solving for Ux, Initial residual = 0.00189376, Final residual = 3.36959e-05, No Iterations 4
smoothSolver:  Solving for Uy, Initial residual = 0.0167645, Final residual = 0.00162727, No Iterations 2
GAMG:  Solving for p, Initial residual = 0.00955225, Final residual = 0.000781261, No Iterations 11
time step continuity errors : sum local = 5.21605e-06, global = 5.72594e-07, cumulative = 3.24837e-06
smoothSolver:  Solving for omega, Initial residual = 0.000858873, Final residual = 5.93613e-08, No Iterations 2
smoothSolver:  Solving for k, Initial residual = 0.0110328, Final residual = 1.04918e-06, No Iterations 2
bounding k, min: 0 max: 0.133708 average: 0.0476377
ExecutionTime = 2.43 s  ClockTime = 2 s

Time = 23

smoothSolver:  Solving for Ux, Initial residual = 0.00178853, Final residual = 3.32514e-05, No Iterations 4
smoothSolver:  Solving for Uy, Initial residual = 0.0158987, Final residual = 0.00152335, No Iterations 2
GAMG:  Solving for p, Initial residual = 0.0083876, Final residual = 0.000766521, No Iterations 10
time step continuity errors : sum local = 4.91873e-06, global = 5.44708e-07, cumulative = 3.79308e-06
smoothSolver:  Solving for omega, Initial residual = 0.000828734, Final residual = 5.95751e-08, No Iterations 2
smoothSolver:  Solving for k, Initial residual = 0.0105088, Final residual = 1.0077e-06, No Iterations 2
bounding k, min: 0 max: 0.136366 average: 0.0476679
ExecutionTime = 2.52 s  ClockTime = 2 s

Time = 24

smoothSolver:  Solving for Ux, Initial residual = 0.00168437, Final residual = 3.23975e-05, No Iterations 4
smoothSolver:  Solving for Uy, Initial residual = 0.0148362, Final residual = 0.00143011, No Iterations 2
GAMG:  Solving for p, Initial residual = 0.00810955, Final residual = 0.00078097, No Iterations 11
time step continuity errors : sum local = 4.6833e-06, global = -1.05883e-07, cumulative = 3.6872e-06
smoothSolver:  Solving for omega, Initial residual = 0.000796745, Final residual = 5.96032e-08, No Iterations 2
smoothSolver:  Solving for k, Initial residual = 0.010038, Final residual = 9.70474e-07, No Iterations 2
bounding k, min: 0 max: 0.139034 average: 0.0476979
ExecutionTime = 2.61 s  ClockTime = 2 s

Time = 25

smoothSolver:  Solving for Ux, Initial residual = 0.00162033, Final residual = 3.14668e-05, No Iterations 4
smoothSolver:  Solving for Uy, Initial residual = 0.0140849, Final residual = 0.00135925, No Iterations 2
GAMG:  Solving for p, Initial residual = 0.00762199, Final residual = 0.000726081, No Iterations 11
time step continuity errors : sum local = 4.23072e-06, global = -1.79885e-07, cumulative = 3.50731e-06
smoothSolver:  Solving for omega, Initial residual = 0.000764373, Final residual = 5.9471e-08, No Iterations 2
smoothSolver:  Solving for k, Initial residual = 0.00961255, Final residual = 9.37241e-07, No Iterations 2
bounding k, min: 0 max: 0.141717 average: 0.0477279
ExecutionTime = 2.7 s  ClockTime = 2 s

Time = 26

smoothSolver:  Solving for Ux, Initial residual = 0.00158282, Final residual = 3.07496e-05, No Iterations 4
smoothSolver:  Solving for Uy, Initial residual = 0.0135808, Final residual = 0.00131706, No Iterations 2
GAMG:  Solving for p, Initial residual = 0.00761971, Final residual = 0.000706406, No Iterations 11
time step continuity errors : sum local = 4.163e-06, global = 1.15407e-07, cumulative = 3.62272e-06
smoothSolver:  Solving for omega, Initial residual = 0.000732861, Final residual = 5.91709e-08, No Iterations 2
smoothSolver:  Solving for k, Initial residual = 0.0092258, Final residual = 9.0784e-07, No Iterations 2
bounding k, min: 0 max: 0.144418 average: 0.0477579
ExecutionTime = 2.79 s  ClockTime = 2 s

Time = 27

smoothSolver:  Solving for Ux, Initial residual = 0.00155072, Final residual = 3.02601e-05, No Iterations 4
smoothSolver:  Solving for Uy, Initial residual = 0.013239, Final residual = 0.00128852, No Iterations 2
GAMG:  Solving for p, Initial residual = 0.0076876, Final residual = 0.000656416, No Iterations 9
time step continuity errors : sum local = 3.97636e-06, global = -3.59349e-07, cumulative = 3.26337e-06
smoothSolver:  Solving for omega, Initial residual = 0.000704746, Final residual = 5.90426e-08, No Iterations 2
smoothSolver:  Solving for k, Initial residual = 0.00887193, Final residual = 8.81021e-07, No Iterations 2
bounding k, min: 0 max: 0.147143 average: 0.0477882
ExecutionTime = 2.88 s  ClockTime = 2 s

Time = 28

smoothSolver:  Solving for Ux, Initial residual = 0.00150803, Final residual = 2.98564e-05, No Iterations 4
smoothSolver:  Solving for Uy, Initial residual = 0.0129496, Final residual = 0.00124402, No Iterations 2
GAMG:  Solving for p, Initial residual = 0.00720084, Final residual = 0.000706752, No Iterations 8
time step continuity errors : sum local = 4.32148e-06, global = -5.99033e-08, cumulative = 3.20347e-06
smoothSolver:  Solving for omega, Initial residual = 0.000679162, Final residual = 5.8982e-08, No Iterations 2
smoothSolver:  Solving for k, Initial residual = 0.00853305, Final residual = 8.52713e-07, No Iterations 2
bounding k, min: 0 max: 0.149894 average: 0.0478182
ExecutionTime = 2.96 s  ClockTime = 2 s

Time = 29

smoothSolver:  Solving for Ux, Initial residual = 0.00145835, Final residual = 2.94439e-05, No Iterations 4
smoothSolver:  Solving for Uy, Initial residual = 0.0125505, Final residual = 0.00119188, No Iterations 2
GAMG:  Solving for p, Initial residual = 0.00680841, Final residual = 0.000630675, No Iterations 9
time step continuity errors : sum local = 3.82306e-06, global = 3.7755e-07, cumulative = 3.58102e-06
smoothSolver:  Solving for omega, Initial residual = 0.000647224, Final residual = 5.8931e-08, No Iterations 2
smoothSolver:  Solving for k, Initial residual = 0.00821957, Final residual = 8.2773e-07, No Iterations 2
bounding k, min: 0 max: 0.152675 average: 0.047848
ExecutionTime = 3.04 s  ClockTime = 3 s

Time = 30

smoothSolver:  Solving for Ux, Initial residual = 0.00140663, Final residual = 2.9004e-05, No Iterations 4
smoothSolver:  Solving for Uy, Initial residual = 0.0119728, Final residual = 0.00113628, No Iterations 2
GAMG:  Solving for p, Initial residual = 0.00658256, Final residual = 0.000603569, No Iterations 9
time step continuity errors : sum local = 3.56994e-06, global = 1.23474e-07, cumulative = 3.70449e-06
smoothSolver:  Solving for omega, Initial residual = 0.000615987, Final residual = 5.88359e-08, No Iterations 2
smoothSolver:  Solving for k, Initial residual = 0.00793004, Final residual = 8.04668e-07, No Iterations 2
bounding k, min: 0 max: 0.155488 average: 0.0478777
ExecutionTime = 3.13 s  ClockTime = 3 s

Time = 31

smoothSolver:  Solving for Ux, Initial residual = 0.00136325, Final residual = 2.84531e-05, No Iterations 4
smoothSolver:  Solving for Uy, Initial residual = 0.0114085, Final residual = 0.00108252, No Iterations 2
GAMG:  Solving for p, Initial residual = 0.00633523, Final residual = 0.00056466, No Iterations 10
time step continuity errors : sum local = 3.2716e-06, global = 2.16229e-07, cumulative = 3.92072e-06
smoothSolver:  Solving for omega, Initial residual = 0.000588324, Final residual = 5.9195e-08, No Iterations 2
smoothSolver:  Solving for k, Initial residual = 0.00766053, Final residual = 7.82699e-07, No Iterations 2
bounding k, min: 0 max: 0.158334 average: 0.0479072
ExecutionTime = 3.21 s  ClockTime = 3 s

Time = 32

smoothSolver:  Solving for Ux, Initial residual = 0.00132998, Final residual = 2.79244e-05, No Iterations 4
smoothSolver:  Solving for Uy, Initial residual = 0.0110359, Final residual = 0.00104345, No Iterations 2
GAMG:  Solving for p, Initial residual = 0.00625766, Final residual = 0.000612619, No Iterations 9
time step continuity errors : sum local = 3.5383e-06, global = -3.0306e-07, cumulative = 3.61766e-06
smoothSolver:  Solving for omega, Initial residual = 0.000572843, Final residual = 6.02459e-08, No Iterations 2
smoothSolver:  Solving for k, Initial residual = 0.00741058, Final residual = 7.62664e-07, No Iterations 2
bounding k, min: 0 max: 0.161218 average: 0.0479367
ExecutionTime = 3.3 s  ClockTime = 3 s

Time = 33

smoothSolver:  Solving for Ux, Initial residual = 0.0013011, Final residual = 2.74768e-05, No Iterations 4
smoothSolver:  Solving for Uy, Initial residual = 0.0108171, Final residual = 0.00102194, No Iterations 2
GAMG:  Solving for p, Initial residual = 0.00617264, Final residual = 0.000609646, No Iterations 8
time step continuity errors : sum local = 3.54019e-06, global = -2.84654e-07, cumulative = 3.33301e-06
smoothSolver:  Solving for omega, Initial residual = 0.000557296, Final residual = 6.10803e-08, No Iterations 2
smoothSolver:  Solving for k, Initial residual = 0.00717809, Final residual = 7.44588e-07, No Iterations 2
bounding k, min: 0 max: 0.16414 average: 0.0479662
ExecutionTime = 3.38 s  ClockTime = 3 s

Time = 34

smoothSolver:  Solving for Ux, Initial residual = 0.00127324, Final residual = 2.70829e-05, No Iterations 4
smoothSolver:  Solving for Uy, Initial residual = 0.0106361, Final residual = 0.00100025, No Iterations 2
GAMG:  Solving for p, Initial residual = 0.0059311, Final residual = 0.000541912, No Iterations 8
time step continuity errors : sum local = 3.16921e-06, global = -2.08527e-07, cumulative = 3.12448e-06
smoothSolver:  Solving for omega, Initial residual = 0.000542183, Final residual = 6.17862e-08, No Iterations 2
smoothSolver:  Solving for k, Initial residual = 0.00696134, Final residual = 7.27937e-07, No Iterations 2
bounding k, min: 0 max: 0.167103 average: 0.0479959
ExecutionTime = 3.46 s  ClockTime = 3 s

Time = 35

smoothSolver:  Solving for Ux, Initial residual = 0.00124399, Final residual = 2.67104e-05, No Iterations 4
smoothSolver:  Solving for Uy, Initial residual = 0.0104136, Final residual = 0.000972587, No Iterations 2
GAMG:  Solving for p, Initial residual = 0.00562668, Final residual = 0.000542104, No Iterations 8
time step continuity errors : sum local = 3.17583e-06, global = -8.27009e-08, cumulative = 3.04178e-06
smoothSolver:  Solving for omega, Initial residual = 0.000528213, Final residual = 6.26102e-08, No Iterations 2
smoothSolver:  Solving for k, Initial residual = 0.00675645, Final residual = 7.11939e-07, No Iterations 2
bounding k, min: 0 max: 0.170106 average: 0.0480256
ExecutionTime = 3.54 s  ClockTime = 3 s

Time = 36

smoothSolver:  Solving for Ux, Initial residual = 0.00121453, Final residual = 2.63492e-05, No Iterations 4
smoothSolver:  Solving for Uy, Initial residual = 0.0101274, Final residual = 0.00094286, No Iterations 2
GAMG:  Solving for p, Initial residual = 0.00545035, Final residual = 0.000502574, No Iterations 9
time step continuity errors : sum local = 2.93368e-06, global = 3.25597e-07, cumulative = 3.36738e-06
smoothSolver:  Solving for omega, Initial residual = 0.000513973, Final residual = 6.31437e-08, No Iterations 2
smoothSolver:  Solving for k, Initial residual = 0.00655898, Final residual = 6.95373e-07, No Iterations 2
bounding k, min: 0 max: 0.173152 average: 0.0480552
ExecutionTime = 3.63 s  ClockTime = 3 s

Time = 37

smoothSolver:  Solving for Ux, Initial residual = 0.00118499, Final residual = 2.60107e-05, No Iterations 4
smoothSolver:  Solving for Uy, Initial residual = 0.0097814, Final residual = 0.000908353, No Iterations 2
GAMG:  Solving for p, Initial residual = 0.00529569, Final residual = 0.000512722, No Iterations 8
time step continuity errors : sum local = 2.9635e-06, global = -5.64782e-08, cumulative = 3.3109e-06
smoothSolver:  Solving for omega, Initial residual = 0.000499169, Final residual = 6.32156e-08, No Iterations 2
smoothSolver:  Solving for k, Initial residual = 0.00637301, Final residual = 6.79517e-07, No Iterations 2
bounding k, min: 0 max: 0.176242 average: 0.0480847
ExecutionTime = 3.71 s  ClockTime = 3 s

Time = 38

smoothSolver:  Solving for Ux, Initial residual = 0.00115745, Final residual = 2.57098e-05, No Iterations 4
smoothSolver:  Solving for Uy, Initial residual = 0.00946596, Final residual = 0.000875128, No Iterations 2
GAMG:  Solving for p, Initial residual = 0.00523867, Final residual = 0.000508454, No Iterations 8
time step continuity errors : sum local = 2.9105e-06, global = -7.47716e-08, cumulative = 3.23613e-06
smoothSolver:  Solving for omega, Initial residual = 0.00048487, Final residual = 6.30376e-08, No Iterations 2
smoothSolver:  Solving for k, Initial residual = 0.00619763, Final residual = 6.64273e-07, No Iterations 2
bounding k, min: 0 max: 0.179377 average: 0.0481143
ExecutionTime = 3.79 s  ClockTime = 3 s

Time = 39

smoothSolver:  Solving for Ux, Initial residual = 0.00113324, Final residual = 2.53207e-05, No Iterations 4
smoothSolver:  Solving for Uy, Initial residual = 0.00924742, Final residual = 0.000851715, No Iterations 2
GAMG:  Solving for p, Initial residual = 0.00517911, Final residual = 0.00050178, No Iterations 8
time step continuity errors : sum local = 2.86226e-06, global = -1.62534e-07, cumulative = 3.07359e-06
smoothSolver:  Solving for omega, Initial residual = 0.00047124, Final residual = 6.26233e-08, No Iterations 2
smoothSolver:  Solving for k, Initial residual = 0.00603223, Final residual = 6.49629e-07, No Iterations 2
bounding k, min: 0 max: 0.182557 average: 0.0481438
ExecutionTime = 3.87 s  ClockTime = 3 s

Time = 40

smoothSolver:  Solving for Ux, Initial residual = 0.00111095, Final residual = 2.49521e-05, No Iterations 4
smoothSolver:  Solving for Uy, Initial residual = 0.00907984, Final residual = 0.000834998, No Iterations 2
GAMG:  Solving for p, Initial residual = 0.00505391, Final residual = 0.000495056, No Iterations 8
time step continuity errors : sum local = 2.82418e-06, global = -2.18889e-07, cumulative = 2.8547e-06
smoothSolver:  Solving for omega, Initial residual = 0.000457832, Final residual = 6.2135e-08, No Iterations 2
smoothSolver:  Solving for k, Initial residual = 0.00587472, Final residual = 6.35711e-07, No Iterations 2
bounding k, min: 0 max: 0.185784 average: 0.0481734
ExecutionTime = 3.95 s  ClockTime = 3 s

Time = 41

smoothSolver:  Solving for Ux, Initial residual = 0.00109028, Final residual = 2.46096e-05, No Iterations 4
smoothSolver:  Solving for Uy, Initial residual = 0.00892853, Final residual = 0.000818666, No Iterations 2
GAMG:  Solving for p, Initial residual = 0.00483899, Final residual = 0.000470639, No Iterations 8
time step continuity errors : sum local = 2.69248e-06, global = -2.18349e-07, cumulative = 2.63635e-06
smoothSolver:  Solving for omega, Initial residual = 0.000443182, Final residual = 6.19355e-08, No Iterations 2
smoothSolver:  Solving for k, Initial residual = 0.00572562, Final residual = 6.2353e-07, No Iterations 2
bounding k, min: 0 max: 0.189058 average: 0.0482029
ExecutionTime = 4.03 s  ClockTime = 4 s

Time = 42

smoothSolver:  Solving for Ux, Initial residual = 0.00107033, Final residual = 2.42823e-05, No Iterations 4
smoothSolver:  Solving for Uy, Initial residual = 0.00876932, Final residual = 0.000800609, No Iterations 2
GAMG:  Solving for p, Initial residual = 0.00466962, Final residual = 0.000463512, No Iterations 8
time step continuity errors : sum local = 2.65887e-06, global = -1.7367e-07, cumulative = 2.46268e-06
smoothSolver:  Solving for omega, Initial residual = 0.000429214, Final residual = 6.1691e-08, No Iterations 2
smoothSolver:  Solving for k, Initial residual = 0.00558471, Final residual = 6.12159e-07, No Iterations 2
bounding k, min: 0 max: 0.192379 average: 0.0482326
ExecutionTime = 4.1 s  ClockTime = 4 s

Time = 43

smoothSolver:  Solving for Ux, Initial residual = 0.00105045, Final residual = 2.3971e-05, No Iterations 4
smoothSolver:  Solving for Uy, Initial residual = 0.00858892, Final residual = 0.000781427, No Iterations 2
GAMG:  Solving for p, Initial residual = 0.00460711, Final residual = 0.000420579, No Iterations 9
time step continuity errors : sum local = 2.41391e-06, global = 1.96026e-07, cumulative = 2.65871e-06
smoothSolver:  Solving for omega, Initial residual = 0.000416502, Final residual = 6.15872e-08, No Iterations 2
smoothSolver:  Solving for k, Initial residual = 0.00545079, Final residual = 6.01454e-07, No Iterations 2
bounding k, min: 0 max: 0.195749 average: 0.0482623
ExecutionTime = 4.18 s  ClockTime = 4 s

Time = 44

smoothSolver:  Solving for Ux, Initial residual = 0.00103085, Final residual = 2.36846e-05, No Iterations 4
smoothSolver:  Solving for Uy, Initial residual = 0.00838763, Final residual = 0.000760136, No Iterations 2
GAMG:  Solving for p, Initial residual = 0.0044754, Final residual = 0.000437052, No Iterations 8
time step continuity errors : sum local = 2.504e-06, global = -5.1423e-08, cumulative = 2.60729e-06
smoothSolver:  Solving for omega, Initial residual = 0.000404523, Final residual = 6.18958e-08, No Iterations 2
smoothSolver:  Solving for k, Initial residual = 0.00532026, Final residual = 5.90214e-07, No Iterations 2
bounding k, min: 0 max: 0.199168 average: 0.0482919
ExecutionTime = 4.26 s  ClockTime = 4 s

Time = 45

smoothSolver:  Solving for Ux, Initial residual = 0.00101138, Final residual = 2.34252e-05, No Iterations 4
smoothSolver:  Solving for Uy, Initial residual = 0.00818601, Final residual = 0.000739439, No Iterations 2
GAMG:  Solving for p, Initial residual = 0.00439971, Final residual = 0.000365729, No Iterations 9
time step continuity errors : sum local = 2.0868e-06, global = 1.97435e-07, cumulative = 2.80472e-06
smoothSolver:  Solving for omega, Initial residual = 0.000396587, Final residual = 6.25292e-08, No Iterations 2
smoothSolver:  Solving for k, Initial residual = 0.005196, Final residual = 5.79415e-07, No Iterations 2
bounding k, min: 0 max: 0.202637 average: 0.0483214
ExecutionTime = 4.34 s  ClockTime = 4 s

Time = 46

smoothSolver:  Solving for Ux, Initial residual = 0.000992588, Final residual = 2.319e-05, No Iterations 4
smoothSolver:  Solving for Uy, Initial residual = 0.00801714, Final residual = 0.000723161, No Iterations 2
GAMG:  Solving for p, Initial residual = 0.0043017, Final residual = 0.000427639, No Iterations 7
time step continuity errors : sum local = 2.43077e-06, global = -5.46887e-08, cumulative = 2.75003e-06
smoothSolver:  Solving for omega, Initial residual = 0.000388788, Final residual = 6.29956e-08, No Iterations 2
smoothSolver:  Solving for k, Initial residual = 0.00507745, Final residual = 5.69014e-07, No Iterations 2
bounding k, min: 0 max: 0.206157 average: 0.0483509
ExecutionTime = 4.42 s  ClockTime = 4 s

Time = 47

smoothSolver:  Solving for Ux, Initial residual = 0.000974997, Final residual = 2.29156e-05, No Iterations 4
smoothSolver:  Solving for Uy, Initial residual = 0.00787712, Final residual = 0.000709669, No Iterations 2
GAMG:  Solving for p, Initial residual = 0.00422423, Final residual = 0.000403738, No Iterations 7
time step continuity errors : sum local = 2.29153e-06, global = 9.86544e-08, cumulative = 2.84869e-06
smoothSolver:  Solving for omega, Initial residual = 0.000381092, Final residual = 6.32985e-08, No Iterations 2
smoothSolver:  Solving for k, Initial residual = 0.00496439, Final residual = 5.59035e-07, No Iterations 2
bounding k, min: 0 max: 0.209728 average: 0.0483804
ExecutionTime = 4.5 s  ClockTime = 4 s

Time = 48

smoothSolver:  Solving for Ux, Initial residual = 0.000958725, Final residual = 2.26183e-05, No Iterations 4
smoothSolver:  Solving for Uy, Initial residual = 0.00775006, Final residual = 0.000696408, No Iterations 2
GAMG:  Solving for p, Initial residual = 0.00414274, Final residual = 0.000396353, No Iterations 7
time step continuity errors : sum local = 2.25112e-06, global = -1.51618e-07, cumulative = 2.69707e-06
smoothSolver:  Solving for omega, Initial residual = 0.000373529, Final residual = 6.3441e-08, No Iterations 2
smoothSolver:  Solving for k, Initial residual = 0.00485661, Final residual = 5.49618e-07, No Iterations 2
bounding k, min: 0 max: 0.213351 average: 0.04841
ExecutionTime = 4.59 s  ClockTime = 4 s

Time = 49

smoothSolver:  Solving for Ux, Initial residual = 0.000943793, Final residual = 2.23327e-05, No Iterations 4
smoothSolver:  Solving for Uy, Initial residual = 0.00762441, Final residual = 0.000682786, No Iterations 2
GAMG:  Solving for p, Initial residual = 0.00407265, Final residual = 0.000405806, No Iterations 7
time step continuity errors : sum local = 2.31087e-06, global = 9.33374e-08, cumulative = 2.79041e-06
smoothSolver:  Solving for omega, Initial residual = 0.00036615, Final residual = 6.34266e-08, No Iterations 2
smoothSolver:  Solving for k, Initial residual = 0.00475362, Final residual = 5.40743e-07, No Iterations 2
bounding k, min: 0 max: 0.217027 average: 0.0484396
ExecutionTime = 4.67 s  ClockTime = 4 s

Time = 50

smoothSolver:  Solving for Ux, Initial residual = 0.000929465, Final residual = 2.20619e-05, No Iterations 4
smoothSolver:  Solving for Uy, Initial residual = 0.00749611, Final residual = 0.000669239, No Iterations 2
GAMG:  Solving for p, Initial residual = 0.0040082, Final residual = 0.000372964, No Iterations 8
time step continuity errors : sum local = 2.12947e-06, global = 1.15063e-07, cumulative = 2.90547e-06
smoothSolver:  Solving for omega, Initial residual = 0.000359032, Final residual = 6.32591e-08, No Iterations 2
smoothSolver:  Solving for k, Initial residual = 0.00465455, Final residual = 5.31922e-07, No Iterations 2
bounding k, min: 0 max: 0.220757 average: 0.0484692
ExecutionTime = 4.87 s  ClockTime = 4 s

Time = 51

smoothSolver:  Solving for Ux, Initial residual = 0.000914998, Final residual = 2.18041e-05, No Iterations 4
smoothSolver:  Solving for Uy, Initial residual = 0.00736117, Final residual = 0.000655368, No Iterations 2
GAMG:  Solving for p, Initial residual = 0.00397134, Final residual = 0.00038078, No Iterations 8
time step continuity errors : sum local = 2.17602e-06, global = 1.49791e-07, cumulative = 3.05526e-06
smoothSolver:  Solving for omega, Initial residual = 0.000352371, Final residual = 6.29705e-08, No Iterations 2
smoothSolver:  Solving for k, Initial residual = 0.0045597, Final residual = 5.23418e-07, No Iterations 2
bounding k, min: 0 max: 0.224541 average: 0.0484989
ExecutionTime = 4.95 s  ClockTime = 4 s

Time = 52

smoothSolver:  Solving for Ux, Initial residual = 0.000900348, Final residual = 2.15627e-05, No Iterations 4
smoothSolver:  Solving for Uy, Initial residual = 0.0072271, Final residual = 0.00064226, No Iterations 2
GAMG:  Solving for p, Initial residual = 0.00395368, Final residual = 0.000375429, No Iterations 8
time step continuity errors : sum local = 2.1436e-06, global = 1.64504e-07, cumulative = 3.21976e-06
smoothSolver:  Solving for omega, Initial residual = 0.000346391, Final residual = 6.26873e-08, No Iterations 2
smoothSolver:  Solving for k, Initial residual = 0.00446809, Final residual = 5.14944e-07, No Iterations 2
bounding k, min: 0 max: 0.228381 average: 0.0485286
ExecutionTime = 5.03 s  ClockTime = 5 s

Time = 53

smoothSolver:  Solving for Ux, Initial residual = 0.000885996, Final residual = 2.13385e-05, No Iterations 4
smoothSolver:  Solving for Uy, Initial residual = 0.00709858, Final residual = 0.000630121, No Iterations 2
GAMG:  Solving for p, Initial residual = 0.00392498, Final residual = 0.000369307, No Iterations 8
time step continuity errors : sum local = 2.10595e-06, global = 1.42705e-07, cumulative = 3.36247e-06
smoothSolver:  Solving for omega, Initial residual = 0.000339607, Final residual = 6.25995e-08, No Iterations 2
smoothSolver:  Solving for k, Initial residual = 0.00437886, Final residual = 5.06816e-07, No Iterations 2
bounding k, min: 0 max: 0.232276 average: 0.0485583
ExecutionTime = 5.11 s  ClockTime = 5 s

Time = 54

smoothSolver:  Solving for Ux, Initial residual = 0.000872276, Final residual = 2.11319e-05, No Iterations 4
smoothSolver:  Solving for Uy, Initial residual = 0.00697552, Final residual = 0.000618458, No Iterations 2
GAMG:  Solving for p, Initial residual = 0.00388346, Final residual = 0.00037118, No Iterations 8
time step continuity errors : sum local = 2.11481e-06, global = 1.19232e-07, cumulative = 3.4817e-06
smoothSolver:  Solving for omega, Initial residual = 0.000332546, Final residual = 6.24227e-08, No Iterations 2
smoothSolver:  Solving for k, Initial residual = 0.0042932, Final residual = 4.99065e-07, No Iterations 2
bounding k, min: 0 max: 0.236227 average: 0.0485879
ExecutionTime = 5.19 s  ClockTime = 5 s

Time = 55

smoothSolver:  Solving for Ux, Initial residual = 0.000859422, Final residual = 2.09416e-05, No Iterations 4
smoothSolver:  Solving for Uy, Initial residual = 0.00685772, Final residual = 0.00060699, No Iterations 2
GAMG:  Solving for p, Initial residual = 0.00381439, Final residual = 0.000367226, No Iterations 8
time step continuity errors : sum local = 2.0934e-06, global = 1.01594e-07, cumulative = 3.58329e-06
smoothSolver:  Solving for omega, Initial residual = 0.000325624, Final residual = 6.21677e-08, No Iterations 2
smoothSolver:  Solving for k, Initial residual = 0.0042109, Final residual = 4.91574e-07, No Iterations 2
bounding k, min: 0 max: 0.240235 average: 0.0486175
ExecutionTime = 5.28 s  ClockTime = 5 s

Time = 56

smoothSolver:  Solving for Ux, Initial residual = 0.000847289, Final residual = 2.07312e-05, No Iterations 4
smoothSolver:  Solving for Uy, Initial residual = 0.00674537, Final residual = 0.000595894, No Iterations 2
GAMG:  Solving for p, Initial residual = 0.00373671, Final residual = 0.00035366, No Iterations 8
time step continuity errors : sum local = 2.01941e-06, global = 9.51355e-08, cumulative = 3.67843e-06
smoothSolver:  Solving for omega, Initial residual = 0.000318878, Final residual = 6.18453e-08, No Iterations 2
smoothSolver:  Solving for k, Initial residual = 0.00413176, Final residual = 4.84348e-07, No Iterations 2
bounding k, min: 0 max: 0.244301 average: 0.0486471
ExecutionTime = 5.36 s  ClockTime = 5 s

Time = 57

smoothSolver:  Solving for Ux, Initial residual = 0.000835528, Final residual = 2.04899e-05, No Iterations 4
smoothSolver:  Solving for Uy, Initial residual = 0.00663665, Final residual = 0.000585348, No Iterations 2
GAMG:  Solving for p, Initial residual = 0.0036895, Final residual = 0.000366136, No Iterations 7
time step continuity errors : sum local = 2.09467e-06, global = -1.16109e-07, cumulative = 3.56232e-06
smoothSolver:  Solving for omega, Initial residual = 0.000312335, Final residual = 6.1465e-08, No Iterations 2
smoothSolver:  Solving for k, Initial residual = 0.00405566, Final residual = 4.77512e-07, No Iterations 2
bounding k, min: 0 max: 0.248426 average: 0.0486767
ExecutionTime = 5.44 s  ClockTime = 5 s

Time = 58

smoothSolver:  Solving for Ux, Initial residual = 0.000823788, Final residual = 2.02549e-05, No Iterations 4
smoothSolver:  Solving for Uy, Initial residual = 0.00652934, Final residual = 0.000575556, No Iterations 2
GAMG:  Solving for p, Initial residual = 0.00363472, Final residual = 0.000326088, No Iterations 7
time step continuity errors : sum local = 1.86787e-06, global = -1.08024e-07, cumulative = 3.4543e-06
smoothSolver:  Solving for omega, Initial residual = 0.000306002, Final residual = 6.13697e-08, No Iterations 2
smoothSolver:  Solving for k, Initial residual = 0.00398247, Final residual = 4.71076e-07, No Iterations 2
bounding k, min: 0 max: 0.252609 average: 0.0487064
ExecutionTime = 5.52 s  ClockTime = 5 s

Time = 59

smoothSolver:  Solving for Ux, Initial residual = 0.00081248, Final residual = 2.0033e-05, No Iterations 4
smoothSolver:  Solving for Uy, Initial residual = 0.0064236, Final residual = 0.000565854, No Iterations 2
GAMG:  Solving for p, Initial residual = 0.0036254, Final residual = 0.00035514, No Iterations 7
time step continuity errors : sum local = 2.03639e-06, global = 8.66554e-08, cumulative = 3.54095e-06
smoothSolver:  Solving for omega, Initial residual = 0.000301725, Final residual = 6.16232e-08, No Iterations 2
smoothSolver:  Solving for k, Initial residual = 0.00391209, Final residual = 4.64901e-07, No Iterations 2
bounding k, min: 0 max: 0.256852 average: 0.0487361
ExecutionTime = 5.6 s  ClockTime = 5 s

Time = 60

smoothSolver:  Solving for Ux, Initial residual = 0.000801365, Final residual = 1.98208e-05, No Iterations 4
smoothSolver:  Solving for Uy, Initial residual = 0.00631825, Final residual = 0.000556688, No Iterations 2
GAMG:  Solving for p, Initial residual = 0.0035949, Final residual = 0.000325642, No Iterations 7
time step continuity errors : sum local = 1.86855e-06, global = 4.89856e-08, cumulative = 3.58994e-06
smoothSolver:  Solving for omega, Initial residual = 0.000297732, Final residual = 6.17979e-08, No Iterations 2
smoothSolver:  Solving for k, Initial residual = 0.00384429, Final residual = 4.5894e-07, No Iterations 2
bounding k, min: 0 max: 0.261155 average: 0.0487658
ExecutionTime = 5.68 s  ClockTime = 5 s

Time = 61

smoothSolver:  Solving for Ux, Initial residual = 0.000790703, Final residual = 1.96229e-05, No Iterations 4
smoothSolver:  Solving for Uy, Initial residual = 0.00621366, Final residual = 0.000547489, No Iterations 2
GAMG:  Solving for p, Initial residual = 0.003568, Final residual = 0.000308068, No Iterations 7
time step continuity errors : sum local = 1.76946e-06, global = -1.12203e-07, cumulative = 3.47774e-06
smoothSolver:  Solving for omega, Initial residual = 0.000294091, Final residual = 6.19704e-08, No Iterations 2
smoothSolver:  Solving for k, Initial residual = 0.00377813, Final residual = 4.52934e-07, No Iterations 2
bounding k, min: 0 max: 0.26552 average: 0.0487956
ExecutionTime = 5.76 s  ClockTime = 5 s

Time = 62

smoothSolver:  Solving for Ux, Initial residual = 0.000780196, Final residual = 1.94359e-05, No Iterations 4
smoothSolver:  Solving for Uy, Initial residual = 0.00610886, Final residual = 0.000538674, No Iterations 2
GAMG:  Solving for p, Initial residual = 0.0035324, Final residual = 0.000311572, No Iterations 7
time step continuity errors : sum local = 1.79148e-06, global = 7.6779e-08, cumulative = 3.55451e-06
smoothSolver:  Solving for omega, Initial residual = 0.000290477, Final residual = 6.20475e-08, No Iterations 2
smoothSolver:  Solving for k, Initial residual = 0.00371348, Final residual = 4.46775e-07, No Iterations 2
bounding k, min: 0 max: 0.269945 average: 0.0488253
ExecutionTime = 5.84 s  ClockTime = 5 s

Time = 63

smoothSolver:  Solving for Ux, Initial residual = 0.000769637, Final residual = 1.92558e-05, No Iterations 4
smoothSolver:  Solving for Uy, Initial residual = 0.00600565, Final residual = 0.000529995, No Iterations 2
GAMG:  Solving for p, Initial residual = 0.00350301, Final residual = 0.000303119, No Iterations 7
time step continuity errors : sum local = 1.74537e-06, global = -9.69955e-08, cumulative = 3.45752e-06
smoothSolver:  Solving for omega, Initial residual = 0.000286792, Final residual = 6.19673e-08, No Iterations 2
smoothSolver:  Solving for k, Initial residual = 0.00365073, Final residual = 4.40687e-07, No Iterations 2
bounding k, min: 0 max: 0.274433 average: 0.048855
ExecutionTime = 5.91 s  ClockTime = 5 s

Time = 64

smoothSolver:  Solving for Ux, Initial residual = 0.000759505, Final residual = 1.90875e-05, No Iterations 4
smoothSolver:  Solving for Uy, Initial residual = 0.00590448, Final residual = 0.000521445, No Iterations 2
GAMG:  Solving for p, Initial residual = 0.00347289, Final residual = 0.000318793, No Iterations 7
time step continuity errors : sum local = 1.83849e-06, global = 7.70661e-08, cumulative = 3.53459e-06
smoothSolver:  Solving for omega, Initial residual = 0.00028319, Final residual = 6.17714e-08, No Iterations 2
smoothSolver:  Solving for k, Initial residual = 0.00359006, Final residual = 4.34674e-07, No Iterations 2
bounding k, min: 0 max: 0.278984 average: 0.0488847
ExecutionTime = 5.99 s  ClockTime = 6 s

Time = 65

smoothSolver:  Solving for Ux, Initial residual = 0.000749668, Final residual = 1.89294e-05, No Iterations 4
smoothSolver:  Solving for Uy, Initial residual = 0.00580483, Final residual = 0.000513339, No Iterations 2
GAMG:  Solving for p, Initial residual = 0.00343311, Final residual = 0.000314411, No Iterations 7
time step continuity errors : sum local = 1.8159e-06, global = -9.40184e-08, cumulative = 3.44057e-06
smoothSolver:  Solving for omega, Initial residual = 0.000279689, Final residual = 6.14711e-08, No Iterations 2
smoothSolver:  Solving for k, Initial residual = 0.00353139, Final residual = 4.28733e-07, No Iterations 2
bounding k, min: 0 max: 0.283599 average: 0.0489144
ExecutionTime = 6.07 s  ClockTime = 6 s

Time = 66

smoothSolver:  Solving for Ux, Initial residual = 0.000740053, Final residual = 1.87445e-05, No Iterations 4
smoothSolver:  Solving for Uy, Initial residual = 0.00570432, Final residual = 0.000505508, No Iterations 2
GAMG:  Solving for p, Initial residual = 0.00339976, Final residual = 0.000322557, No Iterations 7
time step continuity errors : sum local = 1.86495e-06, global = 8.44853e-08, cumulative = 3.52505e-06
smoothSolver:  Solving for omega, Initial residual = 0.000275723, Final residual = 6.13274e-08, No Iterations 2
smoothSolver:  Solving for k, Initial residual = 0.00347467, Final residual = 4.23313e-07, No Iterations 2
bounding k, min: 0 max: 0.288277 average: 0.0489441
ExecutionTime = 6.15 s  ClockTime = 6 s

Time = 67

smoothSolver:  Solving for Ux, Initial residual = 0.000730643, Final residual = 1.85462e-05, No Iterations 4
smoothSolver:  Solving for Uy, Initial residual = 0.00560331, Final residual = 0.000497941, No Iterations 2
GAMG:  Solving for p, Initial residual = 0.00337136, Final residual = 0.000312621, No Iterations 7
time step continuity errors : sum local = 1.80927e-06, global = -9.43336e-08, cumulative = 3.43072e-06
smoothSolver:  Solving for omega, Initial residual = 0.000271703, Final residual = 6.11576e-08, No Iterations 2
smoothSolver:  Solving for k, Initial residual = 0.00341979, Final residual = 4.18281e-07, No Iterations 2
bounding k, min: 0 max: 0.293021 average: 0.0489737
ExecutionTime = 6.23 s  ClockTime = 6 s

Time = 68

smoothSolver:  Solving for Ux, Initial residual = 0.000721529, Final residual = 1.83549e-05, No Iterations 4
smoothSolver:  Solving for Uy, Initial residual = 0.00550173, Final residual = 0.00049058, No Iterations 2
GAMG:  Solving for p, Initial residual = 0.00334765, Final residual = 0.0003136, No Iterations 7
time step continuity errors : sum local = 1.81696e-06, global = 7.70356e-08, cumulative = 3.50775e-06
smoothSolver:  Solving for omega, Initial residual = 0.000267717, Final residual = 6.09373e-08, No Iterations 2
smoothSolver:  Solving for k, Initial residual = 0.00336665, Final residual = 4.1345e-07, No Iterations 2
bounding k, min: 0 max: 0.297829 average: 0.0490034
ExecutionTime = 6.31 s  ClockTime = 6 s

Time = 69

smoothSolver:  Solving for Ux, Initial residual = 0.000712752, Final residual = 1.81709e-05, No Iterations 4
smoothSolver:  Solving for Uy, Initial residual = 0.00540163, Final residual = 0.0004835, No Iterations 2
GAMG:  Solving for p, Initial residual = 0.00332604, Final residual = 0.000308005, No Iterations 7
time step continuity errors : sum local = 1.78721e-06, global = -1.03395e-07, cumulative = 3.40436e-06
smoothSolver:  Solving for omega, Initial residual = 0.000263786, Final residual = 6.06707e-08, No Iterations 2
smoothSolver:  Solving for k, Initial residual = 0.0033153, Final residual = 4.08792e-07, No Iterations 2
bounding k, min: 0 max: 0.302704 average: 0.0490331
ExecutionTime = 6.39 s  ClockTime = 6 s

Time = 70

smoothSolver:  Solving for Ux, Initial residual = 0.000704207, Final residual = 1.79959e-05, No Iterations 4
smoothSolver:  Solving for Uy, Initial residual = 0.00530223, Final residual = 0.000476564, No Iterations 2
GAMG:  Solving for p, Initial residual = 0.00331063, Final residual = 0.00031068, No Iterations 7
time step continuity errors : sum local = 1.80577e-06, global = 7.56591e-08, cumulative = 3.48002e-06
smoothSolver:  Solving for omega, Initial residual = 0.00025997, Final residual = 6.03741e-08, No Iterations 2
smoothSolver:  Solving for k, Initial residual = 0.00326556, Final residual = 4.04292e-07, No Iterations 2
bounding k, min: 0 max: 0.307646 average: 0.0490628
ExecutionTime = 6.47 s  ClockTime = 6 s

Time = 71

smoothSolver:  Solving for Ux, Initial residual = 0.000695895, Final residual = 1.78281e-05, No Iterations 4
smoothSolver:  Solving for Uy, Initial residual = 0.0052036, Final residual = 0.000469822, No Iterations 2
GAMG:  Solving for p, Initial residual = 0.00329785, Final residual = 0.000306914, No Iterations 7
time step continuity errors : sum local = 1.78694e-06, global = -1.03738e-07, cumulative = 3.37628e-06
smoothSolver:  Solving for omega, Initial residual = 0.000256412, Final residual = 6.01104e-08, No Iterations 2
smoothSolver:  Solving for k, Initial residual = 0.00321675, Final residual = 3.99738e-07, No Iterations 2
bounding k, min: 0 max: 0.312655 average: 0.0490924
ExecutionTime = 6.55 s  ClockTime = 6 s

Time = 72

smoothSolver:  Solving for Ux, Initial residual = 0.000687673, Final residual = 1.76699e-05, No Iterations 4
smoothSolver:  Solving for Uy, Initial residual = 0.00510356, Final residual = 0.00046322, No Iterations 2
GAMG:  Solving for p, Initial residual = 0.00328054, Final residual = 0.000306725, No Iterations 7
time step continuity errors : sum local = 1.78853e-06, global = 8.2013e-08, cumulative = 3.45829e-06
smoothSolver:  Solving for omega, Initial residual = 0.000252865, Final residual = 5.98043e-08, No Iterations 2
smoothSolver:  Solving for k, Initial residual = 0.00316932, Final residual = 3.95251e-07, No Iterations 2
bounding k, min: 0 max: 0.317732 average: 0.0491221
ExecutionTime = 6.63 s  ClockTime = 6 s

Time = 73

smoothSolver:  Solving for Ux, Initial residual = 0.000679613, Final residual = 1.75189e-05, No Iterations 4
smoothSolver:  Solving for Uy, Initial residual = 0.00500189, Final residual = 0.000456658, No Iterations 2
GAMG:  Solving for p, Initial residual = 0.00325742, Final residual = 0.000300671, No Iterations 7
time step continuity errors : sum local = 1.75573e-06, global = -1.00128e-07, cumulative = 3.35817e-06
smoothSolver:  Solving for omega, Initial residual = 0.000249373, Final residual = 5.97555e-08, No Iterations 2
smoothSolver:  Solving for k, Initial residual = 0.00312311, Final residual = 3.90757e-07, No Iterations 2
bounding k, min: 0 max: 0.322877 average: 0.0491517
ExecutionTime = 6.7 s  ClockTime = 6 s

Time = 74

smoothSolver:  Solving for Ux, Initial residual = 0.000671641, Final residual = 1.73755e-05, No Iterations 4
smoothSolver:  Solving for Uy, Initial residual = 0.0048971, Final residual = 0.00045008, No Iterations 2
GAMG:  Solving for p, Initial residual = 0.00323427, Final residual = 0.000298723, No Iterations 7
time step continuity errors : sum local = 1.74651e-06, global = 8.12023e-08, cumulative = 3.43937e-06
smoothSolver:  Solving for omega, Initial residual = 0.000246908, Final residual = 5.98479e-08, No Iterations 2
smoothSolver:  Solving for k, Initial residual = 0.00307815, Final residual = 3.86306e-07, No Iterations 2
bounding k, min: 0 max: 0.328092 average: 0.0491813
ExecutionTime = 6.78 s  ClockTime = 6 s

Time = 75

smoothSolver:  Solving for Ux, Initial residual = 0.000663892, Final residual = 1.72413e-05, No Iterations 4
smoothSolver:  Solving for Uy, Initial residual = 0.00479047, Final residual = 0.000443479, No Iterations 2
GAMG:  Solving for p, Initial residual = 0.00321267, Final residual = 0.000290476, No Iterations 7
time step continuity errors : sum local = 1.70054e-06, global = -1.00387e-07, cumulative = 3.33898e-06
smoothSolver:  Solving for omega, Initial residual = 0.000244499, Final residual = 5.98658e-08, No Iterations 2
smoothSolver:  Solving for k, Initial residual = 0.00303447, Final residual = 3.81921e-07, No Iterations 2
bounding k, min: 0 max: 0.333377 average: 0.0492109
ExecutionTime = 6.86 s  ClockTime = 6 s

Time = 76

smoothSolver:  Solving for Ux, Initial residual = 0.000656285, Final residual = 1.71018e-05, No Iterations 4
smoothSolver:  Solving for Uy, Initial residual = 0.0046816, Final residual = 0.000436828, No Iterations 2
GAMG:  Solving for p, Initial residual = 0.00319529, Final residual = 0.00028605, No Iterations 7
time step continuity errors : sum local = 1.67677e-06, global = 7.84835e-08, cumulative = 3.41746e-06
smoothSolver:  Solving for omega, Initial residual = 0.000242118, Final residual = 5.98105e-08, No Iterations 2
smoothSolver:  Solving for k, Initial residual = 0.00299203, Final residual = 3.77607e-07, No Iterations 2
bounding k, min: 0 max: 0.338733 average: 0.0492406
ExecutionTime = 6.93 s  ClockTime = 6 s

Time = 77

smoothSolver:  Solving for Ux, Initial residual = 0.000648917, Final residual = 1.69374e-05, No Iterations 4
smoothSolver:  Solving for Uy, Initial residual = 0.0045741, Final residual = 0.000430426, No Iterations 2
GAMG:  Solving for p, Initial residual = 0.00317918, Final residual = 0.000278622, No Iterations 7
time step continuity errors : sum local = 1.63562e-06, global = -1.02135e-07, cumulative = 3.31533e-06
smoothSolver:  Solving for omega, Initial residual = 0.000239779, Final residual = 5.96835e-08, No Iterations 2
smoothSolver:  Solving for k, Initial residual = 0.00295086, Final residual = 3.73475e-07, No Iterations 2
bounding k, min: 0 max: 0.34416 average: 0.0492702
ExecutionTime = 7.01 s  ClockTime = 7 s

Time = 78

smoothSolver:  Solving for Ux, Initial residual = 0.000641744, Final residual = 1.67763e-05, No Iterations 4
smoothSolver:  Solving for Uy, Initial residual = 0.00446899, Final residual = 0.000424254, No Iterations 2
GAMG:  Solving for p, Initial residual = 0.00316208, Final residual = 0.000280273, No Iterations 7
time step continuity errors : sum local = 1.64791e-06, global = 7.29402e-08, cumulative = 3.38827e-06
smoothSolver:  Solving for omega, Initial residual = 0.000237485, Final residual = 5.94862e-08, No Iterations 2
smoothSolver:  Solving for k, Initial residual = 0.00291083, Final residual = 3.69457e-07, No Iterations 2
bounding k, min: 0 max: 0.349658 average: 0.0492999
ExecutionTime = 7.08 s  ClockTime = 7 s

Time = 79

smoothSolver:  Solving for Ux, Initial residual = 0.000634792, Final residual = 1.66205e-05, No Iterations 4
smoothSolver:  Solving for Uy, Initial residual = 0.00436662, Final residual = 0.000418274, No Iterations 2
GAMG:  Solving for p, Initial residual = 0.00314914, Final residual = 0.000276345, No Iterations 7
time step continuity errors : sum local = 1.62777e-06, global = -1.03643e-07, cumulative = 3.28463e-06
smoothSolver:  Solving for omega, Initial residual = 0.000235095, Final residual = 5.9294e-08, No Iterations 2
smoothSolver:  Solving for k, Initial residual = 0.00287189, Final residual = 3.65611e-07, No Iterations 2
bounding k, min: 0 max: 0.35523 average: 0.0493295
ExecutionTime = 7.16 s  ClockTime = 7 s

Time = 80

smoothSolver:  Solving for Ux, Initial residual = 0.000628034, Final residual = 1.64702e-05, No Iterations 4
smoothSolver:  Solving for Uy, Initial residual = 0.0042649, Final residual = 0.000412399, No Iterations 2
GAMG:  Solving for p, Initial residual = 0.00313868, Final residual = 0.00027594, No Iterations 7
time step continuity errors : sum local = 1.62831e-06, global = 7.36101e-08, cumulative = 3.35824e-06
smoothSolver:  Solving for omega, Initial residual = 0.000232504, Final residual = 5.91687e-08, No Iterations 2
smoothSolver:  Solving for k, Initial residual = 0.00283377, Final residual = 3.61953e-07, No Iterations 2
bounding k, min: 0 max: 0.360875 average: 0.0493592
ExecutionTime = 7.24 s  ClockTime = 7 s

Time = 81

smoothSolver:  Solving for Ux, Initial residual = 0.000621393, Final residual = 1.63255e-05, No Iterations 4
smoothSolver:  Solving for Uy, Initial residual = 0.00416406, Final residual = 0.000406526, No Iterations 2
GAMG:  Solving for p, Initial residual = 0.00313134, Final residual = 0.000268521, No Iterations 7
time step continuity errors : sum local = 1.58727e-06, global = -1.0011e-07, cumulative = 3.25813e-06
smoothSolver:  Solving for omega, Initial residual = 0.000229967, Final residual = 5.9023e-08, No Iterations 2
smoothSolver:  Solving for k, Initial residual = 0.00279652, Final residual = 3.58364e-07, No Iterations 2
bounding k, min: 0 max: 0.366593 average: 0.0493889
ExecutionTime = 7.32 s  ClockTime = 7 s

Time = 82

smoothSolver:  Solving for Ux, Initial residual = 0.000614837, Final residual = 1.61875e-05, No Iterations 4
smoothSolver:  Solving for Uy, Initial residual = 0.00406333, Final residual = 0.000400768, No Iterations 2
GAMG:  Solving for p, Initial residual = 0.0031201, Final residual = 0.000265189, No Iterations 7
time step continuity errors : sum local = 1.56996e-06, global = 7.59094e-08, cumulative = 3.33404e-06
smoothSolver:  Solving for omega, Initial residual = 0.000227526, Final residual = 5.889e-08, No Iterations 2
smoothSolver:  Solving for k, Initial residual = 0.00276021, Final residual = 3.54864e-07, No Iterations 2
bounding k, min: 0 max: 0.372386 average: 0.0494186
ExecutionTime = 7.4 s  ClockTime = 7 s

Time = 83

smoothSolver:  Solving for Ux, Initial residual = 0.000608406, Final residual = 1.60559e-05, No Iterations 4
smoothSolver:  Solving for Uy, Initial residual = 0.00396476, Final residual = 0.000395029, No Iterations 2
GAMG:  Solving for p, Initial residual = 0.00310896, Final residual = 0.000257102, No Iterations 7
time step continuity errors : sum local = 1.52437e-06, global = -9.87054e-08, cumulative = 3.23533e-06
smoothSolver:  Solving for omega, Initial residual = 0.000225101, Final residual = 5.873e-08, No Iterations 2
smoothSolver:  Solving for k, Initial residual = 0.00272482, Final residual = 3.51411e-07, No Iterations 2
bounding k, min: 0 max: 0.378255 average: 0.0494483
ExecutionTime = 7.48 s  ClockTime = 7 s

Time = 84

smoothSolver:  Solving for Ux, Initial residual = 0.000602067, Final residual = 1.59303e-05, No Iterations 4
smoothSolver:  Solving for Uy, Initial residual = 0.00386831, Final residual = 8.01503e-05, No Iterations 4
GAMG:  Solving for p, Initial residual = 0.00445522, Final residual = 0.000437134, No Iterations 8
time step continuity errors : sum local = 2.59397e-06, global = -1.12358e-07, cumulative = 3.12297e-06
smoothSolver:  Solving for omega, Initial residual = 0.000222685, Final residual = 5.85291e-08, No Iterations 2
smoothSolver:  Solving for k, Initial residual = 0.00269029, Final residual = 3.48e-07, No Iterations 2
bounding k, min: 0 max: 0.384199 average: 0.049478
ExecutionTime = 7.56 s  ClockTime = 7 s

Time = 85

smoothSolver:  Solving for Ux, Initial residual = 0.000596473, Final residual = 1.58259e-05, No Iterations 4
smoothSolver:  Solving for Uy, Initial residual = 0.00360988, Final residual = 0.000347138, No Iterations 2
GAMG:  Solving for p, Initial residual = 0.00309433, Final residual = 0.000265087, No Iterations 7
time step continuity errors : sum local = 1.5714e-06, global = 7.94472e-08, cumulative = 3.20242e-06
smoothSolver:  Solving for omega, Initial residual = 0.000220289, Final residual = 5.82889e-08, No Iterations 2
smoothSolver:  Solving for k, Initial residual = 0.00265659, Final residual = 3.4463e-07, No Iterations 2
bounding k, min: 0 max: 0.39022 average: 0.0495076
ExecutionTime = 7.64 s  ClockTime = 7 s

Time = 86

smoothSolver:  Solving for Ux, Initial residual = 0.000589932, Final residual = 1.57081e-05, No Iterations 4
smoothSolver:  Solving for Uy, Initial residual = 0.00352497, Final residual = 0.000344517, No Iterations 2
GAMG:  Solving for p, Initial residual = 0.00358785, Final residual = 0.000338715, No Iterations 8
time step continuity errors : sum local = 2.01061e-06, global = -1.18882e-07, cumulative = 3.08354e-06
smoothSolver:  Solving for omega, Initial residual = 0.000217907, Final residual = 5.80123e-08, No Iterations 2
smoothSolver:  Solving for k, Initial residual = 0.00262367, Final residual = 3.41296e-07, No Iterations 2
bounding k, min: 0 max: 0.396319 average: 0.0495373
ExecutionTime = 7.72 s  ClockTime = 7 s

Time = 87

smoothSolver:  Solving for Ux, Initial residual = 0.000583308, Final residual = 1.55775e-05, No Iterations 4
smoothSolver:  Solving for Uy, Initial residual = 0.00356263, Final residual = 7.55863e-05, No Iterations 4
GAMG:  Solving for p, Initial residual = 0.00343279, Final residual = 0.000293485, No Iterations 7
time step continuity errors : sum local = 1.74645e-06, global = 7.73815e-08, cumulative = 3.16092e-06
smoothSolver:  Solving for omega, Initial residual = 0.000215555, Final residual = 5.77017e-08, No Iterations 2
smoothSolver:  Solving for k, Initial residual = 0.00259154, Final residual = 3.38003e-07, No Iterations 2
bounding k, min: 0 max: 0.402495 average: 0.0495671
ExecutionTime = 7.8 s  ClockTime = 7 s

Time = 88

smoothSolver:  Solving for Ux, Initial residual = 0.00057786, Final residual = 1.54451e-05, No Iterations 4
smoothSolver:  Solving for Uy, Initial residual = 0.00343628, Final residual = 7.20559e-05, No Iterations 4
GAMG:  Solving for p, Initial residual = 0.00409792, Final residual = 0.000373718, No Iterations 8
time step continuity errors : sum local = 2.22598e-06, global = 8.53963e-08, cumulative = 3.24631e-06
smoothSolver:  Solving for omega, Initial residual = 0.000213246, Final residual = 5.74101e-08, No Iterations 2
smoothSolver:  Solving for k, Initial residual = 0.0025602, Final residual = 3.34864e-07, No Iterations 2
bounding k, min: 0 max: 0.40875 average: 0.0495968
ExecutionTime = 7.88 s  ClockTime = 7 s

Time = 89

smoothSolver:  Solving for Ux, Initial residual = 0.000572843, Final residual = 1.53223e-05, No Iterations 4
smoothSolver:  Solving for Uy, Initial residual = 0.00323984, Final residual = 0.000318497, No Iterations 2
GAMG:  Solving for p, Initial residual = 0.00318201, Final residual = 0.000316948, No Iterations 7
time step continuity errors : sum local = 1.88878e-06, global = -1.3031e-07, cumulative = 3.116e-06
smoothSolver:  Solving for omega, Initial residual = 0.000211234, Final residual = 5.73725e-08, No Iterations 2
smoothSolver:  Solving for k, Initial residual = 0.00252959, Final residual = 3.31776e-07, No Iterations 2
bounding k, min: 0 max: 0.415084 average: 0.0496266
ExecutionTime = 7.96 s  ClockTime = 7 s

Time = 90

smoothSolver:  Solving for Ux, Initial residual = 0.000566759, Final residual = 1.51826e-05, No Iterations 4
smoothSolver:  Solving for Uy, Initial residual = 0.00322764, Final residual = 6.67919e-05, No Iterations 4
GAMG:  Solving for p, Initial residual = 0.00297477, Final residual = 0.000241171, No Iterations 7
time step continuity errors : sum local = 1.44011e-06, global = -5.05106e-08, cumulative = 3.06549e-06
smoothSolver:  Solving for omega, Initial residual = 0.000209569, Final residual = 5.72977e-08, No Iterations 2
smoothSolver:  Solving for k, Initial residual = 0.0024997, Final residual = 3.28725e-07, No Iterations 2
bounding k, min: 0 max: 0.421498 average: 0.0496564
ExecutionTime = 8.03 s  ClockTime = 8 s

Time = 91

smoothSolver:  Solving for Ux, Initial residual = 0.000561344, Final residual = 1.50512e-05, No Iterations 4
smoothSolver:  Solving for Uy, Initial residual = 0.00317605, Final residual = 6.6581e-05, No Iterations 4
GAMG:  Solving for p, Initial residual = 0.00322824, Final residual = 0.000287622, No Iterations 6
time step continuity errors : sum local = 1.72074e-06, global = -1.14029e-07, cumulative = 2.95146e-06
smoothSolver:  Solving for omega, Initial residual = 0.000207942, Final residual = 5.71716e-08, No Iterations 2
smoothSolver:  Solving for k, Initial residual = 0.00247039, Final residual = 3.25669e-07, No Iterations 2
bounding k, min: 0 max: 0.427992 average: 0.0496862
ExecutionTime = 8.11 s  ClockTime = 8 s

Time = 92

smoothSolver:  Solving for Ux, Initial residual = 0.00055601, Final residual = 1.49296e-05, No Iterations 4
smoothSolver:  Solving for Uy, Initial residual = 0.00308355, Final residual = 6.4056e-05, No Iterations 4
GAMG:  Solving for p, Initial residual = 0.00326622, Final residual = 0.000289816, No Iterations 7
time step continuity errors : sum local = 1.73543e-06, global = 9.13304e-08, cumulative = 3.0428e-06
smoothSolver:  Solving for omega, Initial residual = 0.000206394, Final residual = 5.7011e-08, No Iterations 2
smoothSolver:  Solving for k, Initial residual = 0.00244167, Final residual = 3.22643e-07, No Iterations 2
bounding k, min: 0 max: 0.434568 average: 0.0497161
ExecutionTime = 8.19 s  ClockTime = 8 s

Time = 93

smoothSolver:  Solving for Ux, Initial residual = 0.000550708, Final residual = 1.48124e-05, No Iterations 4
smoothSolver:  Solving for Uy, Initial residual = 0.00299175, Final residual = 6.13463e-05, No Iterations 4
GAMG:  Solving for p, Initial residual = 0.00300764, Final residual = 0.00029646, No Iterations 6
time step continuity errors : sum local = 1.77661e-06, global = 6.71499e-08, cumulative = 3.10994e-06
smoothSolver:  Solving for omega, Initial residual = 0.000204873, Final residual = 5.68916e-08, No Iterations 2
smoothSolver:  Solving for k, Initial residual = 0.00241353, Final residual = 3.19719e-07, No Iterations 2
bounding k, min: 0 max: 0.441226 average: 0.0497459
ExecutionTime = 8.26 s  ClockTime = 8 s

Time = 94

smoothSolver:  Solving for Ux, Initial residual = 0.000545393, Final residual = 1.4697e-05, No Iterations 4
smoothSolver:  Solving for Uy, Initial residual = 0.00293215, Final residual = 6.00628e-05, No Iterations 4
GAMG:  Solving for p, Initial residual = 0.00292715, Final residual = 0.000275436, No Iterations 7
time step continuity errors : sum local = 1.65276e-06, global = -1.17072e-07, cumulative = 2.99287e-06
smoothSolver:  Solving for omega, Initial residual = 0.0002032, Final residual = 5.68356e-08, No Iterations 2
smoothSolver:  Solving for k, Initial residual = 0.00238597, Final residual = 3.16946e-07, No Iterations 2
bounding k, min: 0 max: 0.447966 average: 0.0497757
ExecutionTime = 8.34 s  ClockTime = 8 s

Time = 95

smoothSolver:  Solving for Ux, Initial residual = 0.000539889, Final residual = 1.45832e-05, No Iterations 4
smoothSolver:  Solving for Uy, Initial residual = 0.00290356, Final residual = 6.02097e-05, No Iterations 4
GAMG:  Solving for p, Initial residual = 0.00283556, Final residual = 0.000272096, No Iterations 7
time step continuity errors : sum local = 1.63493e-06, global = 5.2426e-08, cumulative = 3.0453e-06
smoothSolver:  Solving for omega, Initial residual = 0.000201487, Final residual = 5.67505e-08, No Iterations 2
smoothSolver:  Solving for k, Initial residual = 0.00235899, Final residual = 3.14207e-07, No Iterations 2
bounding k, min: 0 max: 0.454788 average: 0.0498056
ExecutionTime = 8.42 s  ClockTime = 8 s

Time = 96

smoothSolver:  Solving for Ux, Initial residual = 0.000534801, Final residual = 1.44758e-05, No Iterations 4
smoothSolver:  Solving for Uy, Initial residual = 0.00288902, Final residual = 6.06021e-05, No Iterations 4
GAMG:  Solving for p, Initial residual = 0.00285393, Final residual = 0.000279095, No Iterations 6
time step continuity errors : sum local = 1.68078e-06, global = 9.98203e-08, cumulative = 3.14512e-06
smoothSolver:  Solving for omega, Initial residual = 0.000199745, Final residual = 5.66325e-08, No Iterations 2
smoothSolver:  Solving for k, Initial residual = 0.00233257, Final residual = 3.115e-07, No Iterations 2
bounding k, min: 0 max: 0.461695 average: 0.0498354
ExecutionTime = 8.49 s  ClockTime = 8 s

Time = 97

smoothSolver:  Solving for Ux, Initial residual = 0.000529774, Final residual = 1.43744e-05, No Iterations 4
smoothSolver:  Solving for Uy, Initial residual = 0.00285793, Final residual = 6.00707e-05, No Iterations 4
GAMG:  Solving for p, Initial residual = 0.00295285, Final residual = 0.000241382, No Iterations 7
time step continuity errors : sum local = 1.45646e-06, global = -1.14016e-07, cumulative = 3.0311e-06
smoothSolver:  Solving for omega, Initial residual = 0.000197994, Final residual = 5.64837e-08, No Iterations 2
smoothSolver:  Solving for k, Initial residual = 0.00230671, Final residual = 3.08823e-07, No Iterations 2
bounding k, min: 0 max: 0.468686 average: 0.0498653
ExecutionTime = 8.57 s  ClockTime = 8 s

Time = 98

smoothSolver:  Solving for Ux, Initial residual = 0.000524794, Final residual = 1.42786e-05, No Iterations 4
smoothSolver:  Solving for Uy, Initial residual = 0.00280948, Final residual = 5.87335e-05, No Iterations 4
GAMG:  Solving for p, Initial residual = 0.00292431, Final residual = 0.000292019, No Iterations 5
time step continuity errors : sum local = 1.76434e-06, global = -9.82484e-08, cumulative = 2.93285e-06
smoothSolver:  Solving for omega, Initial residual = 0.000196239, Final residual = 5.63058e-08, No Iterations 2
smoothSolver:  Solving for k, Initial residual = 0.00228138, Final residual = 3.06173e-07, No Iterations 2
bounding k, min: 0 max: 0.475761 average: 0.0498951
ExecutionTime = 8.65 s  ClockTime = 8 s

Time = 99

smoothSolver:  Solving for Ux, Initial residual = 0.00051986, Final residual = 1.41668e-05, No Iterations 4
smoothSolver:  Solving for Uy, Initial residual = 0.00275696, Final residual = 5.73324e-05, No Iterations 4
GAMG:  Solving for p, Initial residual = 0.0028665, Final residual = 0.000275131, No Iterations 5
time step continuity errors : sum local = 1.66396e-06, global = 9.27286e-08, cumulative = 3.02558e-06
smoothSolver:  Solving for omega, Initial residual = 0.00019449, Final residual = 5.61016e-08, No Iterations 2
smoothSolver:  Solving for k, Initial residual = 0.0022566, Final residual = 3.03614e-07, No Iterations 2
bounding k, min: 0 max: 0.482923 average: 0.049925
ExecutionTime = 8.71 s  ClockTime = 8 s

Time = 100

smoothSolver:  Solving for Ux, Initial residual = 0.000514895, Final residual = 1.40475e-05, No Iterations 4
smoothSolver:  Solving for Uy, Initial residual = 0.00271263, Final residual = 5.648e-05, No Iterations 4
GAMG:  Solving for p, Initial residual = 0.0028144, Final residual = 0.000280729, No Iterations 5
time step continuity errors : sum local = 1.69933e-06, global = -1.21819e-07, cumulative = 2.90376e-06
smoothSolver:  Solving for omega, Initial residual = 0.00019275, Final residual = 5.58723e-08, No Iterations 2
smoothSolver:  Solving for k, Initial residual = 0.00223235, Final residual = 3.01131e-07, No Iterations 2
bounding k, min: 0 max: 0.490171 average: 0.0499549
ExecutionTime = 8.92 s  ClockTime = 8 s

Time = 101

smoothSolver:  Solving for Ux, Initial residual = 0.00051015, Final residual = 1.39302e-05, No Iterations 4
smoothSolver:  Solving for Uy, Initial residual = 0.00268027, Final residual = 5.61611e-05, No Iterations 4
GAMG:  Solving for p, Initial residual = 0.00279946, Final residual = 0.000247548, No Iterations 7
time step continuity errors : sum local = 1.50054e-06, global = 8.24498e-08, cumulative = 2.98621e-06
smoothSolver:  Solving for omega, Initial residual = 0.00019102, Final residual = 5.56176e-08, No Iterations 2
smoothSolver:  Solving for k, Initial residual = 0.00220861, Final residual = 2.98684e-07, No Iterations 2
bounding k, min: 0 max: 0.497506 average: 0.0499848
ExecutionTime = 9 s  ClockTime = 9 s

Time = 102

smoothSolver:  Solving for Ux, Initial residual = 0.000505532, Final residual = 1.38173e-05, No Iterations 4
smoothSolver:  Solving for Uy, Initial residual = 0.00265438, Final residual = 5.59864e-05, No Iterations 4
GAMG:  Solving for p, Initial residual = 0.00281316, Final residual = 0.000244697, No Iterations 7
time step continuity errors : sum local = 1.48563e-06, global = -1.31088e-07, cumulative = 2.85512e-06
smoothSolver:  Solving for omega, Initial residual = 0.000189306, Final residual = 5.53375e-08, No Iterations 2
smoothSolver:  Solving for k, Initial residual = 0.00218537, Final residual = 2.96269e-07, No Iterations 2
bounding k, min: 0 max: 0.504928 average: 0.0500147
ExecutionTime = 9.08 s  ClockTime = 9 s

Time = 103

smoothSolver:  Solving for Ux, Initial residual = 0.000500947, Final residual = 1.37083e-05, No Iterations 4
smoothSolver:  Solving for Uy, Initial residual = 0.0026241, Final residual = 5.55332e-05, No Iterations 4
GAMG:  Solving for p, Initial residual = 0.00283255, Final residual = 0.000275814, No Iterations 6
time step continuity errors : sum local = 1.67723e-06, global = -1.39458e-07, cumulative = 2.71567e-06
smoothSolver:  Solving for omega, Initial residual = 0.000187611, Final residual = 5.50341e-08, No Iterations 2
smoothSolver:  Solving for k, Initial residual = 0.0021626, Final residual = 2.93881e-07, No Iterations 2
bounding k, min: 0 max: 0.512438 average: 0.0500447
ExecutionTime = 9.15 s  ClockTime = 9 s

Time = 104

smoothSolver:  Solving for Ux, Initial residual = 0.000496424, Final residual = 1.36022e-05, No Iterations 4
smoothSolver:  Solving for Uy, Initial residual = 0.00258769, Final residual = 5.47764e-05, No Iterations 4
GAMG:  Solving for p, Initial residual = 0.00284583, Final residual = 0.000265951, No Iterations 7
[...]
GAMG:  Solving for p, Initial residual = 0.000606477, Final residual = 3.11251e-05, No Iterations 3
time step continuity errors : sum local = 3.46239e-07, global = -3.88935e-08, cumulative = -1.66314e-05
smoothSolver:  Solving for omega, Initial residual = 5.73659e-05, Final residual = 2.44258e-08, No Iterations 2
smoothSolver:  Solving for k, Initial residual = 0.00035445, Final residual = 1.13209e-07, No Iterations 2
bounding k, min: 0 max: 7.84827 average: 0.063718
ExecutionTime = 35.14 s  ClockTime = 35 s

Time = 475

smoothSolver:  Solving for Ux, Initial residual = 6.19772e-05, Final residual = 1.72691e-06, No Iterations 4
smoothSolver:  Solving for Uy, Initial residual = 0.000423108, Final residual = 3.23831e-05, No Iterations 2
GAMG:  Solving for p, Initial residual = 0.000605048, Final residual = 3.27804e-05, No Iterations 3
time step continuity errors : sum local = 3.64855e-07, global = -4.29306e-08, cumulative = -1.66744e-05
smoothSolver:  Solving for omega, Initial residual = 5.72728e-05, Final residual = 2.4403e-08, No Iterations 2
smoothSolver:  Solving for k, Initial residual = 0.000353384, Final residual = 1.13159e-07, No Iterations 2
bounding k, min: 0 max: 7.86195 average: 0.063756
ExecutionTime = 35.21 s  ClockTime = 35 s

Time = 476

smoothSolver:  Solving for Ux, Initial residual = 6.18302e-05, Final residual = 1.72305e-06, No Iterations 4
smoothSolver:  Solving for Uy, Initial residual = 0.00042071, Final residual = 3.22287e-05, No Iterations 2
GAMG:  Solving for p, Initial residual = 0.000603082, Final residual = 3.73253e-05, No Iterations 3
time step continuity errors : sum local = 4.1571e-07, global = 2.38607e-08, cumulative = -1.66505e-05
smoothSolver:  Solving for omega, Initial residual = 5.71803e-05, Final residual = 2.438e-08, No Iterations 2
smoothSolver:  Solving for k, Initial residual = 0.000352322, Final residual = 1.13107e-07, No Iterations 2
bounding k, min: 0 max: 7.87556 average: 0.0637939
ExecutionTime = 35.28 s  ClockTime = 35 s

Time = 477

smoothSolver:  Solving for Ux, Initial residual = 6.1705e-05, Final residual = 1.71932e-06, No Iterations 4
smoothSolver:  Solving for Uy, Initial residual = 0.000418772, Final residual = 3.20904e-05, No Iterations 2
GAMG:  Solving for p, Initial residual = 0.00059879, Final residual = 3.05419e-05, No Iterations 3
time step continuity errors : sum local = 3.40397e-07, global = -3.73124e-08, cumulative = -1.66878e-05
smoothSolver:  Solving for omega, Initial residual = 5.70894e-05, Final residual = 2.4357e-08, No Iterations 2
smoothSolver:  Solving for k, Initial residual = 0.000351264, Final residual = 1.13055e-07, No Iterations 2
bounding k, min: 0 max: 7.88911 average: 0.0638318
ExecutionTime = 35.34 s  ClockTime = 35 s

Time = 478

smoothSolver:  Solving for Ux, Initial residual = 6.15162e-05, Final residual = 1.71533e-06, No Iterations 4
smoothSolver:  Solving for Uy, Initial residual = 0.000415926, Final residual = 3.19271e-05, No Iterations 2
GAMG:  Solving for p, Initial residual = 0.000595377, Final residual = 3.22596e-05, No Iterations 3
time step continuity errors : sum local = 3.59736e-07, global = -4.16572e-08, cumulative = -1.67295e-05
smoothSolver:  Solving for omega, Initial residual = 5.69985e-05, Final residual = 2.43338e-08, No Iterations 2
smoothSolver:  Solving for k, Initial residual = 0.00035021, Final residual = 1.13002e-07, No Iterations 2
bounding k, min: 0 max: 7.90258 average: 0.0638697
ExecutionTime = 35.4 s  ClockTime = 35 s

Time = 479

smoothSolver:  Solving for Ux, Initial residual = 6.13721e-05, Final residual = 1.71153e-06, No Iterations 4
smoothSolver:  Solving for Uy, Initial residual = 0.000413578, Final residual = 3.17756e-05, No Iterations 2
GAMG:  Solving for p, Initial residual = 0.000593688, Final residual = 3.7165e-05, No Iterations 3
time step continuity errors : sum local = 4.14696e-07, global = 2.40909e-08, cumulative = -1.67054e-05
smoothSolver:  Solving for omega, Initial residual = 5.69074e-05, Final residual = 2.43104e-08, No Iterations 2
smoothSolver:  Solving for k, Initial residual = 0.000349161, Final residual = 1.12949e-07, No Iterations 2
bounding k, min: 0 max: 7.91599 average: 0.0639075
ExecutionTime = 35.48 s  ClockTime = 35 s

Time = 480

smoothSolver:  Solving for Ux, Initial residual = 6.12493e-05, Final residual = 1.70784e-06, No Iterations 4
smoothSolver:  Solving for Uy, Initial residual = 0.000411698, Final residual = 3.164e-05, No Iterations 2
GAMG:  Solving for p, Initial residual = 0.000589677, Final residual = 3.00605e-05, No Iterations 3
time step continuity errors : sum local = 3.3565e-07, global = -3.66669e-08, cumulative = -1.6742e-05
smoothSolver:  Solving for omega, Initial residual = 5.68163e-05, Final residual = 2.42868e-08, No Iterations 2
smoothSolver:  Solving for k, Initial residual = 0.000348116, Final residual = 1.12895e-07, No Iterations 2
bounding k, min: 0 max: 7.92933 average: 0.0639453
ExecutionTime = 35.54 s  ClockTime = 35 s

Time = 481

smoothSolver:  Solving for Ux, Initial residual = 6.10647e-05, Final residual = 1.70397e-06, No Iterations 4
smoothSolver:  Solving for Uy, Initial residual = 0.00040895, Final residual = 3.14815e-05, No Iterations 2
GAMG:  Solving for p, Initial residual = 0.000588244, Final residual = 3.20977e-05, No Iterations 3
time step continuity errors : sum local = 3.58586e-07, global = -4.17145e-08, cumulative = -1.67838e-05
smoothSolver:  Solving for omega, Initial residual = 5.67252e-05, Final residual = 2.42631e-08, No Iterations 2
smoothSolver:  Solving for k, Initial residual = 0.000347075, Final residual = 1.1284e-07, No Iterations 2
bounding k, min: 0 max: 7.94261 average: 0.063983
ExecutionTime = 35.6 s  ClockTime = 35 s

Time = 482

smoothSolver:  Solving for Ux, Initial residual = 6.09242e-05, Final residual = 1.7003e-06, No Iterations 4
smoothSolver:  Solving for Uy, Initial residual = 0.000406698, Final residual = 3.13356e-05, No Iterations 2
GAMG:  Solving for p, Initial residual = 0.000586413, Final residual = 3.44362e-05, No Iterations 3
time step continuity errors : sum local = 3.84946e-07, global = 2.24018e-08, cumulative = -1.67614e-05
smoothSolver:  Solving for omega, Initial residual = 5.6634e-05, Final residual = 2.42393e-08, No Iterations 2
smoothSolver:  Solving for k, Initial residual = 0.000346038, Final residual = 1.12785e-07, No Iterations 2
bounding k, min: 0 max: 7.95582 average: 0.0640207
ExecutionTime = 35.67 s  ClockTime = 35 s

Time = 483

smoothSolver:  Solving for Ux, Initial residual = 6.08008e-05, Final residual = 1.69662e-06, No Iterations 4
smoothSolver:  Solving for Uy, Initial residual = 0.000404794, Final residual = 3.12028e-05, No Iterations 2
GAMG:  Solving for p, Initial residual = 0.000580883, Final residual = 2.98265e-05, No Iterations 3
time step continuity errors : sum local = 3.33633e-07, global = -3.62141e-08, cumulative = -1.67976e-05
smoothSolver:  Solving for omega, Initial residual = 5.65428e-05, Final residual = 2.42156e-08, No Iterations 2
smoothSolver:  Solving for k, Initial residual = 0.000345005, Final residual = 1.12729e-07, No Iterations 2
bounding k, min: 0 max: 7.96896 average: 0.0640584
ExecutionTime = 35.74 s  ClockTime = 35 s

Time = 484

smoothSolver:  Solving for Ux, Initial residual = 6.06266e-05, Final residual = 1.69281e-06, No Iterations 4
smoothSolver:  Solving for Uy, Initial residual = 0.000402241, Final residual = 3.1054e-05, No Iterations 2
GAMG:  Solving for p, Initial residual = 0.000579115, Final residual = 3.25798e-05, No Iterations 3
time step continuity errors : sum local = 3.64621e-07, global = -4.1686e-08, cumulative = -1.68393e-05
smoothSolver:  Solving for omega, Initial residual = 5.64514e-05, Final residual = 2.41927e-08, No Iterations 2
smoothSolver:  Solving for k, Initial residual = 0.000343976, Final residual = 1.12672e-07, No Iterations 2
bounding k, min: 0 max: 7.98204 average: 0.0640961
ExecutionTime = 35.8 s  ClockTime = 35 s

Time = 485

smoothSolver:  Solving for Ux, Initial residual = 6.04951e-05, Final residual = 1.68921e-06, No Iterations 4
smoothSolver:  Solving for Uy, Initial residual = 0.000400177, Final residual = 3.09158e-05, No Iterations 2
GAMG:  Solving for p, Initial residual = 0.000577241, Final residual = 3.18587e-05, No Iterations 3
time step continuity errors : sum local = 3.56767e-07, global = 2.07373e-08, cumulative = -1.68185e-05
smoothSolver:  Solving for omega, Initial residual = 5.63602e-05, Final residual = 2.41697e-08, No Iterations 2
smoothSolver:  Solving for k, Initial residual = 0.000342951, Final residual = 1.12614e-07, No Iterations 2
bounding k, min: 0 max: 7.99505 average: 0.0641337
ExecutionTime = 35.88 s  ClockTime = 35 s

Time = 486

smoothSolver:  Solving for Ux, Initial residual = 6.03624e-05, Final residual = 1.6856e-06, No Iterations 4
smoothSolver:  Solving for Uy, Initial residual = 0.000398172, Final residual = 3.07815e-05, No Iterations 2
GAMG:  Solving for p, Initial residual = 0.00057307, Final residual = 2.9147e-05, No Iterations 3
time step continuity errors : sum local = 3.26597e-07, global = -3.52599e-08, cumulative = -1.68538e-05
smoothSolver:  Solving for omega, Initial residual = 5.62693e-05, Final residual = 2.41464e-08, No Iterations 2
smoothSolver:  Solving for k, Initial residual = 0.000341931, Final residual = 1.12556e-07, No Iterations 2
bounding k, min: 0 max: 8.008 average: 0.0641712
ExecutionTime = 35.94 s  ClockTime = 35 s

Time = 487

smoothSolver:  Solving for Ux, Initial residual = 6.01922e-05, Final residual = 1.68189e-06, No Iterations 4
smoothSolver:  Solving for Uy, Initial residual = 0.0003957, Final residual = 3.06371e-05, No Iterations 2
GAMG:  Solving for p, Initial residual = 0.000570287, Final residual = 3.19033e-05, No Iterations 3
time step continuity errors : sum local = 3.57665e-07, global = -4.04136e-08, cumulative = -1.68942e-05
smoothSolver:  Solving for omega, Initial residual = 5.61791e-05, Final residual = 2.41231e-08, No Iterations 2
smoothSolver:  Solving for k, Initial residual = 0.000340914, Final residual = 1.12498e-07, No Iterations 2
bounding k, min: 0 max: 8.02088 average: 0.0642088
ExecutionTime = 36 s  ClockTime = 36 s

Time = 488

smoothSolver:  Solving for Ux, Initial residual = 6.00652e-05, Final residual = 1.67837e-06, No Iterations 4
smoothSolver:  Solving for Uy, Initial residual = 0.0003937, Final residual = 3.05042e-05, No Iterations 2
GAMG:  Solving for p, Initial residual = 0.000567324, Final residual = 3.18282e-05, No Iterations 3
time step continuity errors : sum local = 3.57034e-07, global = 2.20905e-08, cumulative = -1.68721e-05
smoothSolver:  Solving for omega, Initial residual = 5.60891e-05, Final residual = 2.41002e-08, No Iterations 2
smoothSolver:  Solving for k, Initial residual = 0.000339901, Final residual = 1.12438e-07, No Iterations 2
bounding k, min: 0 max: 8.0337 average: 0.0642462
ExecutionTime = 36.06 s  ClockTime = 36 s

Time = 489

smoothSolver:  Solving for Ux, Initial residual = 5.99391e-05, Final residual = 1.67486e-06, No Iterations 4
smoothSolver:  Solving for Uy, Initial residual = 0.000391827, Final residual = 3.03776e-05, No Iterations 2
GAMG:  Solving for p, Initial residual = 0.000562823, Final residual = 2.85362e-05, No Iterations 3
time step continuity errors : sum local = 3.20296e-07, global = -3.3868e-08, cumulative = -1.6906e-05
smoothSolver:  Solving for omega, Initial residual = 5.5999e-05, Final residual = 2.40778e-08, No Iterations 2
smoothSolver:  Solving for k, Initial residual = 0.000338892, Final residual = 1.12378e-07, No Iterations 2
bounding k, min: 0 max: 8.04645 average: 0.0642837
ExecutionTime = 36.13 s  ClockTime = 36 s

Time = 490

smoothSolver:  Solving for Ux, Initial residual = 5.97674e-05, Final residual = 1.6712e-06, No Iterations 4
smoothSolver:  Solving for Uy, Initial residual = 0.00038941, Final residual = 3.02381e-05, No Iterations 2
GAMG:  Solving for p, Initial residual = 0.00056154, Final residual = 3.06446e-05, No Iterations 3
time step continuity errors : sum local = 3.44129e-07, global = -3.8292e-08, cumulative = -1.69443e-05
smoothSolver:  Solving for omega, Initial residual = 5.59089e-05, Final residual = 2.40556e-08, No Iterations 2
smoothSolver:  Solving for k, Initial residual = 0.000337887, Final residual = 1.12317e-07, No Iterations 2
bounding k, min: 0 max: 8.05913 average: 0.0643211
ExecutionTime = 36.19 s  ClockTime = 36 s

Time = 491

smoothSolver:  Solving for Ux, Initial residual = 5.96385e-05, Final residual = 1.66772e-06, No Iterations 4
smoothSolver:  Solving for Uy, Initial residual = 0.000387428, Final residual = 3.0108e-05, No Iterations 2
GAMG:  Solving for p, Initial residual = 0.000559298, Final residual = 3.37235e-05, No Iterations 3
time step continuity errors : sum local = 3.78919e-07, global = 2.4182e-08, cumulative = -1.69201e-05
smoothSolver:  Solving for omega, Initial residual = 5.5819e-05, Final residual = 2.40334e-08, No Iterations 2
smoothSolver:  Solving for k, Initial residual = 0.000336886, Final residual = 1.12255e-07, No Iterations 2
bounding k, min: 0 max: 8.07175 average: 0.0643585
ExecutionTime = 36.27 s  ClockTime = 36 s

Time = 492

smoothSolver:  Solving for Ux, Initial residual = 5.95211e-05, Final residual = 1.6643e-06, No Iterations 4
smoothSolver:  Solving for Uy, Initial residual = 0.000385755, Final residual = 2.99885e-05, No Iterations 2
GAMG:  Solving for p, Initial residual = 0.000555126, Final residual = 2.83293e-05, No Iterations 3
time step continuity errors : sum local = 3.18499e-07, global = -3.27636e-08, cumulative = -1.69528e-05
smoothSolver:  Solving for omega, Initial residual = 5.57294e-05, Final residual = 2.40111e-08, No Iterations 2
smoothSolver:  Solving for k, Initial residual = 0.000335889, Final residual = 1.12192e-07, No Iterations 2
bounding k, min: 0 max: 8.08431 average: 0.0643958
ExecutionTime = 36.33 s  ClockTime = 36 s

Time = 493

smoothSolver:  Solving for Ux, Initial residual = 5.93498e-05, Final residual = 1.66066e-06, No Iterations 4
smoothSolver:  Solving for Uy, Initial residual = 0.000383386, Final residual = 2.98514e-05, No Iterations 2
GAMG:  Solving for p, Initial residual = 0.000552124, Final residual = 3.0647e-05, No Iterations 3
time step continuity errors : sum local = 3.44717e-07, global = -3.80706e-08, cumulative = -1.69909e-05
smoothSolver:  Solving for omega, Initial residual = 5.56405e-05, Final residual = 2.39886e-08, No Iterations 2
smoothSolver:  Solving for k, Initial residual = 0.000334896, Final residual = 1.12129e-07, No Iterations 2
bounding k, min: 0 max: 8.09681 average: 0.0644331
ExecutionTime = 36.39 s  ClockTime = 36 s

Time = 494

smoothSolver:  Solving for Ux, Initial residual = 5.92194e-05, Final residual = 1.65717e-06, No Iterations 4
smoothSolver:  Solving for Uy, Initial residual = 0.000381432, Final residual = 2.97232e-05, No Iterations 2
GAMG:  Solving for p, Initial residual = 0.000549282, Final residual = 3.14876e-05, No Iterations 3
time step continuity errors : sum local = 3.54365e-07, global = 2.11036e-08, cumulative = -1.69698e-05
smoothSolver:  Solving for omega, Initial residual = 5.55517e-05, Final residual = 2.39659e-08, No Iterations 2
smoothSolver:  Solving for k, Initial residual = 0.000333906, Final residual = 1.12065e-07, No Iterations 2
bounding k, min: 0 max: 8.10924 average: 0.0644704
ExecutionTime = 36.46 s  ClockTime = 36 s

Time = 495

smoothSolver:  Solving for Ux, Initial residual = 5.90967e-05, Final residual = 1.65369e-06, No Iterations 4
smoothSolver:  Solving for Uy, Initial residual = 0.000379669, Final residual = 2.96019e-05, No Iterations 2
GAMG:  Solving for p, Initial residual = 0.000543656, Final residual = 2.81941e-05, No Iterations 3
time step continuity errors : sum local = 3.17476e-07, global = -3.23749e-08, cumulative = -1.70022e-05
smoothSolver:  Solving for omega, Initial residual = 5.54626e-05, Final residual = 2.39429e-08, No Iterations 2
smoothSolver:  Solving for k, Initial residual = 0.00033292, Final residual = 1.12e-07, No Iterations 2
bounding k, min: 0 max: 8.1216 average: 0.0645076
ExecutionTime = 36.53 s  ClockTime = 36 s

Time = 496

smoothSolver:  Solving for Ux, Initial residual = 5.89358e-05, Final residual = 1.65003e-06, No Iterations 4
smoothSolver:  Solving for Uy, Initial residual = 0.00037748, Final residual = 2.94713e-05, No Iterations 2
GAMG:  Solving for p, Initial residual = 0.0005378, Final residual = 3.18712e-05, No Iterations 3
time step continuity errors : sum local = 3.5905e-07, global = -3.85168e-08, cumulative = -1.70407e-05
smoothSolver:  Solving for omega, Initial residual = 5.53731e-05, Final residual = 2.39198e-08, No Iterations 2
smoothSolver:  Solving for k, Initial residual = 0.000331938, Final residual = 1.11934e-07, No Iterations 2
bounding k, min: 0 max: 8.1339 average: 0.0645448
ExecutionTime = 36.6 s  ClockTime = 36 s

Time = 497

smoothSolver:  Solving for Ux, Initial residual = 5.88133e-05, Final residual = 1.64651e-06, No Iterations 4
smoothSolver:  Solving for Uy, Initial residual = 0.000375751, Final residual = 2.93523e-05, No Iterations 2
GAMG:  Solving for p, Initial residual = 0.000532884, Final residual = 2.88329e-05, No Iterations 3
time step continuity errors : sum local = 3.24997e-07, global = 1.86704e-08, cumulative = -1.7022e-05
smoothSolver:  Solving for omega, Initial residual = 5.52833e-05, Final residual = 2.38963e-08, No Iterations 2
smoothSolver:  Solving for k, Initial residual = 0.000330959, Final residual = 1.11867e-07, No Iterations 2
bounding k, min: 0 max: 8.14614 average: 0.064582
ExecutionTime = 36.65 s  ClockTime = 36 s

Time = 498

smoothSolver:  Solving for Ux, Initial residual = 5.86784e-05, Final residual = 1.64302e-06, No Iterations 4
smoothSolver:  Solving for Uy, Initial residual = 0.000373924, Final residual = 2.92322e-05, No Iterations 2
GAMG:  Solving for p, Initial residual = 0.000527473, Final residual = 2.74997e-05, No Iterations 3
time step continuity errors : sum local = 3.10128e-07, global = -3.17182e-08, cumulative = -1.70537e-05
smoothSolver:  Solving for omega, Initial residual = 5.51937e-05, Final residual = 2.38727e-08, No Iterations 2
smoothSolver:  Solving for k, Initial residual = 0.000329984, Final residual = 1.11799e-07, No Iterations 2
bounding k, min: 0 max: 8.15832 average: 0.0646191
ExecutionTime = 36.72 s  ClockTime = 36 s

Time = 499

smoothSolver:  Solving for Ux, Initial residual = 5.85212e-05, Final residual = 1.63953e-06, No Iterations 4
smoothSolver:  Solving for Uy, Initial residual = 0.000371848, Final residual = 2.91076e-05, No Iterations 2
GAMG:  Solving for p, Initial residual = 0.000524911, Final residual = 3.29596e-05, No Iterations 3
time step continuity errors : sum local = 3.71873e-07, global = -3.75795e-08, cumulative = -1.70913e-05
smoothSolver:  Solving for omega, Initial residual = 5.5104e-05, Final residual = 2.38495e-08, No Iterations 2
smoothSolver:  Solving for k, Initial residual = 0.000329013, Final residual = 1.11731e-07, No Iterations 2
bounding k, min: 0 max: 8.17043 average: 0.0646561
ExecutionTime = 36.78 s  ClockTime = 36 s

Time = 500

smoothSolver:  Solving for Ux, Initial residual = 5.84014e-05, Final residual = 1.63626e-06, No Iterations 4
smoothSolver:  Solving for Uy, Initial residual = 0.000370205, Final residual = 2.89929e-05, No Iterations 2
GAMG:  Solving for p, Initial residual = 0.000522637, Final residual = 2.84e-05, No Iterations 3
time step continuity errors : sum local = 3.20598e-07, global = 1.8114e-08, cumulative = -1.70732e-05
smoothSolver:  Solving for omega, Initial residual = 5.50143e-05, Final residual = 2.38263e-08, No Iterations 2
smoothSolver:  Solving for k, Initial residual = 0.000328045, Final residual = 1.11663e-07, No Iterations 2
bounding k, min: 0 max: 8.18248 average: 0.0646932
ExecutionTime = 36.97 s  ClockTime = 37 s

End

